LTspice 24.0.11 for Windows
Circuit: * C:\Users\rahim\Downloads\Coding Projects\Audio_Amplifier\LTSpice_simulations\Class AB\DC Bias\Class_AB_Audio Amplifier_DC_Bias.asc
Start Time: Sat Jun  8 12:15:48 2024
solver = Normal
Maximum thread count: 8
tnom = 27
temp = 27
method = modified trap
Direct Newton iteration failed to find .op point.  (Use ".option noopiter" to skip.)
Starting Gmin stepping
Gmin = 10
Gmin = 1.07374
Gmin = 0.115292
Gmin = 0.0123794
Gmin = 0.00132923
Gmin = 0.000142725
Gmin = 1.5325e-05
Gmin = 1.6455e-06
vernier = 0.5
vernier = 0.25
Gmin = 1.07056e-06
vernier = 0.333333
vernier = 0.166667
vernier = 0.222222
Gmin = 7.32537e-07
vernier = 0.111111
vernier = 0.0555555
vernier = 0.074074
Gmin = 6.59082e-07
vernier = 0.0987653
Gmin = 5.29061e-07
vernier = 0.131687
vernier = 0.0658435
vernier = 0.0877914
Gmin = 4.56842e-07
vernier = 0.0438957
vernier = 0.0585276
Gmin = 4.11169e-07
vernier = 0.0780367
vernier = 0.0390184
Gmin = 3.73184e-07
vernier = 0.0520245
vernier = 0.0260122
vernier = 0.034683
Gmin = 3.50163e-07
vernier = 0.046244
vernier = 0.023122
Gmin = 3.2962e-07
vernier = 0.0308293
vernier = 0.0411057
vernier = 0.0205529
Gmin = 3.11172e-07
vernier = 0.0274038
Gmin = 2.9312e-07
vernier = 0.0365384
vernier = 0.0182692
vernier = 0.0243589
Gmin = 2.81133e-07
vernier = 0.0324786
vernier = 0.0162393
Gmin = 2.69977e-07
vernier = 0.0216524
vernier = 0.0108262
Gmin = 2.61016e-07
vernier = 0.0144349
vernier = 0.0192465
Gmin = 2.51631e-07
vernier = 0.00962327
vernier = 0.012831
Gmin = 2.46248e-07
vernier = 0.017108
vernier = 0.00855401
Gmin = 2.39764e-07
vernier = 0.0114053
vernier = 0.0152071
Gmin = 2.3331e-07
vernier = 0.00760356
Gmin = 2.2849e-07
vernier = 0.0101381
vernier = 0.0135174
Gmin = 2.22029e-07
vernier = 0.0180232
vernier = 0.00901162
vernier = 0.0120155
Gmin = 2.17415e-07
vernier = 0.0160207
vernier = 0.00801033
Gmin = 2.12898e-07
vernier = 0.0106804
vernier = 0.0142406
vernier = 0.00712029
Gmin = 2.08682e-07
vernier = 0.00949371
Gmin = 2.04397e-07
vernier = 0.0126583
vernier = 0.00632914
vernier = 0.00843885
Gmin = 2.01457e-07
vernier = 0.0112518
vernier = 0.0056259
Gmin = 1.98646e-07
vernier = 0.0075012
vernier = 0.0100016
vernier = 0.0050008
Gmin = 1.95904e-07
vernier = 0.00666773
Gmin = 1.92989e-07
vernier = 0.0088903
vernier = 0.0118537
vernier = 0.00592687
Gmin = 1.89873e-07
vernier = 0.00790249
vernier = 0.0105366
Gmin = 1.86315e-07
vernier = 0.00526832
vernier = 0.00702443
Gmin = 1.84283e-07
vernier = 0.0093659
vernier = 0.00468295
vernier = 0.00624394
Gmin = 1.82281e-07
vernier = 0.00832524
vernier = 0.00416262
Gmin = 1.80302e-07
vernier = 0.00555016
vernier = 0.00740021
Gmin = 1.77778e-07
vernier = 0.00986695
vernier = 0.00493347
Gmin = 1.75601e-07
vernier = 0.00657796
vernier = 0.00877062
vernier = 0.00438531
Gmin = 1.73473e-07
vernier = 0.00584708
Gmin = 1.71208e-07
vernier = 0.0077961
vernier = 0.00389805
vernier = 0.0051974
Gmin = 1.69714e-07
vernier = 0.00692986
vernier = 0.00346493
Gmin = 1.68323e-07
vernier = 0.00461991
vernier = 0.00615988
Gmin = 1.66136e-07
vernier = 0.00821317
vernier = 0.00410658
vernier = 0.00547544
Gmin = 1.64553e-07
vernier = 0.00730059
vernier = 0.00365029
Gmin = 1.62984e-07
vernier = 0.00486706
vernier = 0.00648941
vernier = 0.0032447
Gmin = 1.61505e-07
vernier = 0.00432627
Gmin = 1.59984e-07
vernier = 0.00576836
vernier = 0.00769114
vernier = 0.00384557
Gmin = 1.58283e-07
vernier = 0.00512743
Gmin = 1.56469e-07
vernier = 0.00683657
vernier = 0.00341828
vernier = 0.00455771
Gmin = 1.5527e-07
vernier = 0.00607695
vernier = 0.00303847
Gmin = 1.54155e-07
vernier = 0.0040513
vernier = 0.00540173
vernier = 0.00270086
Gmin = 1.52808e-07
vernier = 0.00360115
Gmin = 1.5161e-07
vernier = 0.00480153
vernier = 0.00640204
vernier = 0.00320102
Gmin = 1.50267e-07
vernier = 0.00426803
Gmin = 1.48831e-07
vernier = 0.0056907
vernier = 0.00284535
vernier = 0.0037938
Gmin = 1.47882e-07
vernier = 0.0050584
vernier = 0.0025292
Gmin = 1.46996e-07
vernier = 0.00337227
vernier = 0.00449635
Gmin = 1.45599e-07
vernier = 0.00599514
vernier = 0.00299757
vernier = 0.00399676
Gmin = 1.44585e-07
vernier = 0.00532901
vernier = 0.0026645
Gmin = 1.43578e-07
vernier = 0.00355267
vernier = 0.00473689
vernier = 0.00236845
Gmin = 1.42625e-07
vernier = 0.00315793
Gmin = 1.41643e-07
vernier = 0.00421057
vernier = 0.00561409
vernier = 0.00280705
Gmin = 1.40542e-07
vernier = 0.00374273
Gmin = 1.39364e-07
vernier = 0.0049903
vernier = 0.00249515
vernier = 0.00332687
Gmin = 1.38584e-07
vernier = 0.00443582
vernier = 0.00221791
Gmin = 1.37857e-07
vernier = 0.00295721
vernier = 0.00394295
Gmin = 1.36707e-07
vernier = 0.00525726
vernier = 0.00262863
vernier = 0.00350484
Gmin = 1.35871e-07
vernier = 0.00467312
vernier = 0.00233656
Gmin = 1.35041e-07
vernier = 0.00311541
vernier = 0.00415388
vernier = 0.00207694
Gmin = 1.34254e-07
vernier = 0.00276926
Gmin = 1.33444e-07
vernier = 0.00369234
vernier = 0.00492312
vernier = 0.00246156
Gmin = 1.32534e-07
vernier = 0.00328208
Gmin = 1.31559e-07
vernier = 0.0043761
vernier = 0.00218805
vernier = 0.0029174
Gmin = 1.30913e-07
vernier = 0.00388987
vernier = 0.00194493
Gmin = 1.3031e-07
vernier = 0.00259324
vernier = 0.00345766
Gmin = 1.29356e-07
vernier = 0.00461021
vernier = 0.0023051
vernier = 0.00307347
Gmin = 1.28663e-07
vernier = 0.00409796
vernier = 0.00204898
Gmin = 1.27973e-07
vernier = 0.00273197
vernier = 0.00364263
vernier = 0.00182132
Gmin = 1.27319e-07
vernier = 0.00242842
Gmin = 1.26645e-07
vernier = 0.00323789
vernier = 0.00431719
vernier = 0.00215859
Gmin = 1.25887e-07
vernier = 0.00287813
Gmin = 1.25075e-07
vernier = 0.0038375
vernier = 0.00191875
vernier = 0.00255833
Gmin = 1.24536e-07
vernier = 0.00341111
vernier = 0.00454814
Gmin = 1.23523e-07
vernier = 0.00227407
vernier = 0.0030321
Gmin = 1.22939e-07
vernier = 0.00404279
vernier = 0.0020214
vernier = 0.00269519
Gmin = 1.22361e-07
vernier = 0.00359359
vernier = 0.0017968
Gmin = 1.21785e-07
vernier = 0.00239573
vernier = 0.0031943
Gmin = 1.21046e-07
vernier = 0.00425907
vernier = 0.00212953
Gmin = 1.20404e-07
vernier = 0.00283938
vernier = 0.00378584
vernier = 0.00189292
Gmin = 1.19772e-07
vernier = 0.00252389
Gmin = 1.19094e-07
vernier = 0.00336519
vernier = 0.00168259
vernier = 0.00224346
Gmin = 1.18644e-07
vernier = 0.00299128
vernier = 0.00398837
Gmin = 1.17797e-07
vernier = 0.00199418
vernier = 0.00265891
Gmin = 1.17309e-07
vernier = 0.00354521
vernier = 0.00177261
vernier = 0.00236347
Gmin = 1.16825e-07
vernier = 0.0031513
vernier = 0.00157565
Gmin = 1.16343e-07
vernier = 0.00210087
vernier = 0.00280115
Gmin = 1.15723e-07
vernier = 0.00373487
vernier = 0.00186743
Gmin = 1.15184e-07
vernier = 0.00248991
vernier = 0.00331988
vernier = 0.00165994
Gmin = 1.14654e-07
vernier = 0.00221325
Gmin = 1.14084e-07
vernier = 0.00295101
vernier = 0.0014755
vernier = 0.00196734
Gmin = 1.13706e-07
vernier = 0.00262311
vernier = 0.00349749
Gmin = 1.12994e-07
vernier = 0.00174874
vernier = 0.00233166
Gmin = 1.12583e-07
vernier = 0.00310887
vernier = 0.00155444
vernier = 0.00207258
Gmin = 1.12176e-07
vernier = 0.00276344
Gmin = 1.115e-07
vernier = 0.00368459
vernier = 0.00184229
vernier = 0.00245639
Gmin = 1.11031e-07
vernier = 0.00327519
vernier = 0.00163759
Gmin = 1.10577e-07
vernier = 0.00218346
vernier = 0.00291128
vernier = 0.00145564
Gmin = 1.1013e-07
vernier = 0.00194085
Gmin = 1.09651e-07
vernier = 0.0025878
vernier = 0.0034504
vernier = 0.0017252
Gmin = 1.09132e-07
vernier = 0.00230027
vernier = 0.00306702
Gmin = 1.08532e-07
vernier = 0.00153351
vernier = 0.00204468
Gmin = 1.08186e-07
vernier = 0.00272624
vernier = 0.00136312
vernier = 0.00181749
Gmin = 1.07843e-07
vernier = 0.00242332
Gmin = 1.07273e-07
vernier = 0.0032311
vernier = 0.00161555
vernier = 0.00215406
Gmin = 1.06876e-07
vernier = 0.00287208
vernier = 0.00143604
Gmin = 1.06493e-07
vernier = 0.00191472
vernier = 0.00255296
Gmin = 1.05947e-07
vernier = 0.00340395
vernier = 0.00170197
Gmin = 1.0552e-07
vernier = 0.0022693
vernier = 0.00302573
vernier = 0.00151287
Gmin = 1.05082e-07
vernier = 0.00201715
vernier = 0.00268954
Gmin = 1.04575e-07
vernier = 0.00134477
vernier = 0.00179302
Gmin = 1.04283e-07
vernier = 0.0023907
vernier = 0.0031876
vernier = 0.0015938
Gmin = 1.03816e-07
vernier = 0.00212506
Gmin = 1.03335e-07
vernier = 0.00283342
vernier = 0.00141671
vernier = 0.00188894
Gmin = 1.03e-07
vernier = 0.00251859
vernier = 0.0012593
Gmin = 1.02676e-07
vernier = 0.00167906
vernier = 0.00223875
Gmin = 1.02214e-07
vernier = 0.002985
vernier = 0.0014925
Gmin = 1.01853e-07
vernier = 0.00199
vernier = 0.00265333
vernier = 0.00132666
Gmin = 1.01482e-07
vernier = 0.00176889
vernier = 0.00235851
Gmin = 1.01053e-07
vernier = 0.00314468
vernier = 0.00157234
Gmin = 1.00637e-07
vernier = 0.00209646
vernier = 0.00279527
vernier = 0.00139764
Gmin = 1.00242e-07
vernier = 0.00186351
Gmin = 9.98342e-08
vernier = 0.00248469
vernier = 0.00124234
vernier = 0.00165646
Gmin = 9.95504e-08
vernier = 0.00220861
Gmin = 9.9057e-08
vernier = 0.00294481
vernier = 0.00147241
vernier = 0.00196321
Gmin = 9.87295e-08
vernier = 0.00261761
vernier = 0.0013088
Gmin = 9.84231e-08
vernier = 0.00174507
vernier = 0.00232676
vernier = 0.00116338
Gmin = 9.81088e-08
vernier = 0.00155117
vernier = 0.00206823
Gmin = 9.7745e-08
vernier = 0.00275764
vernier = 0.00137882
Gmin = 9.73919e-08
vernier = 0.00183843
vernier = 0.00245124
vernier = 0.00122562
Gmin = 9.70568e-08
vernier = 0.00163416
Gmin = 9.67106e-08
vernier = 0.00217887
vernier = 0.00290517
vernier = 0.00145258
Gmin = 9.63207e-08
vernier = 0.00193678
Gmin = 9.5902e-08
vernier = 0.00258237
vernier = 0.00129118
vernier = 0.00172158
Gmin = 9.56239e-08
vernier = 0.00229544
vernier = 0.00114772
Gmin = 9.53636e-08
vernier = 0.00153029
vernier = 0.00204039
Gmin = 9.49511e-08
vernier = 0.00272052
vernier = 0.00136026
vernier = 0.00181368
Gmin = 9.46503e-08
vernier = 0.00241824
vernier = 0.00120912
Gmin = 9.43504e-08
vernier = 0.00161216
vernier = 0.00214954
vernier = 0.00107477
Gmin = 9.40657e-08
vernier = 0.00143303
Gmin = 9.37713e-08
vernier = 0.0019107
vernier = 0.0025476
vernier = 0.0012738
Gmin = 9.34398e-08
vernier = 0.0016984
Gmin = 9.30835e-08
vernier = 0.00226453
vernier = 0.00113227
vernier = 0.00150969
Gmin = 9.28467e-08
vernier = 0.00201292
vernier = 0.00268389
Gmin = 9.24001e-08
vernier = 0.00134195
vernier = 0.00178926
Gmin = 9.21422e-08
vernier = 0.00238568
vernier = 0.00119284
vernier = 0.00159045
Gmin = 9.18861e-08
vernier = 0.0021206
vernier = 0.0010603
Gmin = 9.16308e-08
vernier = 0.00141374
vernier = 0.00188498
Gmin = 9.13022e-08
vernier = 0.00251331
vernier = 0.00125665
Gmin = 9.10158e-08
vernier = 0.00167554
vernier = 0.00223405
vernier = 0.00111702
Gmin = 9.07336e-08
vernier = 0.00148937
Gmin = 9.04301e-08
vernier = 0.00198582
vernier = 0.00099291
vernier = 0.00132388
Gmin = 9.02283e-08
vernier = 0.00176517
vernier = 0.00235356
Gmin = 8.98476e-08
vernier = 0.00117678
vernier = 0.00156904
Gmin = 8.96276e-08
vernier = 0.00209205
vernier = 0.00104603
vernier = 0.0013947
Gmin = 8.94092e-08
vernier = 0.0018596
Gmin = 8.90463e-08
vernier = 0.00247947
vernier = 0.00123974
vernier = 0.00165298
Gmin = 8.87937e-08
vernier = 0.00220397
vernier = 0.00110199
Gmin = 8.85495e-08
vernier = 0.00146931
vernier = 0.00195909
vernier = 0.000979543
Gmin = 8.83086e-08
vernier = 0.00130606
Gmin = 8.80495e-08
vernier = 0.00174141
vernier = 0.00232188
vernier = 0.00116094
Gmin = 8.77689e-08
vernier = 0.00154792
vernier = 0.00206389
Gmin = 8.74441e-08
vernier = 0.00103194
vernier = 0.00137593
Gmin = 8.72563e-08
vernier = 0.00183457
vernier = 0.00244609
vernier = 0.00122304
Gmin = 8.69567e-08
vernier = 0.00163073
Gmin = 8.66472e-08
vernier = 0.0021743
vernier = 0.00108715
vernier = 0.00144953
Gmin = 8.64316e-08
vernier = 0.00193271
vernier = 0.000966356
Gmin = 8.62231e-08
vernier = 0.00128847
vernier = 0.00171796
Gmin = 8.59251e-08
vernier = 0.00229062
vernier = 0.00114531
Gmin = 8.56917e-08
vernier = 0.00152708
vernier = 0.0020361
vernier = 0.00101805
Gmin = 8.54522e-08
vernier = 0.0013574
vernier = 0.00180987
Gmin = 8.51748e-08
vernier = 0.000904935
vernier = 0.00120658
Gmin = 8.50144e-08
vernier = 0.00160877
vernier = 0.00214503
vernier = 0.00107251
Gmin = 8.47583e-08
vernier = 0.00143002
Gmin = 8.44937e-08
vernier = 0.00190669
vernier = 0.000953346
vernier = 0.00127113
Gmin = 8.43093e-08
vernier = 0.00169484
Gmin = 8.39885e-08
vernier = 0.00225978
vernier = 0.00112989
vernier = 0.00150652
Gmin = 8.37753e-08
vernier = 0.00200869
vernier = 0.00100435
Gmin = 8.35757e-08
vernier = 0.00133913
vernier = 0.0017855
vernier = 0.000892752
Gmin = 8.33708e-08
vernier = 0.00119034
vernier = 0.00158711
Gmin = 8.31334e-08
vernier = 0.00211615
vernier = 0.00105808
Gmin = 8.29029e-08
vernier = 0.00141077
vernier = 0.00188102
vernier = 0.000940511
Gmin = 8.26839e-08
vernier = 0.00125401
Gmin = 8.24574e-08
vernier = 0.00167202
vernier = 0.00222936
vernier = 0.00111468
Gmin = 8.22022e-08
vernier = 0.00148624
Gmin = 8.19279e-08
vernier = 0.00198165
vernier = 0.000990826
vernier = 0.0013211
Gmin = 8.17454e-08
vernier = 0.00176147
vernier = 0.000880733
Gmin = 8.15746e-08
vernier = 0.00117431
vernier = 0.00156575
Gmin = 8.13037e-08
vernier = 0.00208766
vernier = 0.00104383
vernier = 0.00139177
Gmin = 8.1106e-08
vernier = 0.0018557
vernier = 0.00092785
Gmin = 8.09087e-08
vernier = 0.00123713
vernier = 0.00164951
Gmin = 8.06547e-08
vernier = 0.00219935
vernier = 0.00109967
Gmin = 8.04333e-08
vernier = 0.00146623
vernier = 0.00195497
vernier = 0.000977487
Gmin = 8.0215e-08
vernier = 0.00130332
Gmin = 7.99802e-08
vernier = 0.00173775
vernier = 0.000868876
vernier = 0.0011585
Gmin = 7.9824e-08
vernier = 0.00154467
vernier = 0.00205956
Gmin = 7.95292e-08
vernier = 0.00102978
vernier = 0.00137304
Gmin = 7.93588e-08
vernier = 0.00183072
vernier = 0.000915358
vernier = 0.00122048
Gmin = 7.91895e-08
vernier = 0.0016273
vernier = 0.000813652
Gmin = 7.90205e-08
vernier = 0.00108487
vernier = 0.00144649
Gmin = 7.8803e-08
vernier = 0.00192865
vernier = 0.000964327
Gmin = 7.86133e-08
vernier = 0.00128577
vernier = 0.00171436
vernier = 0.000857179
Gmin = 7.84261e-08
vernier = 0.00114291
Gmin = 7.82247e-08
vernier = 0.00152387
vernier = 0.00203183
vernier = 0.00101592
Gmin = 7.80065e-08
vernier = 0.00135455
vernier = 0.00180607
Gmin = 7.77538e-08
vernier = 0.000903035
vernier = 0.00120405
Gmin = 7.76077e-08
vernier = 0.0016054
vernier = 0.000802698
vernier = 0.00107026
Gmin = 7.74625e-08
vernier = 0.00142702
Gmin = 7.72211e-08
vernier = 0.00190269
vernier = 0.000951345
vernier = 0.00126846
Gmin = 7.70529e-08
vernier = 0.00169128
vernier = 0.000845639
Gmin = 7.68902e-08
vernier = 0.00112752
vernier = 0.00150336
Gmin = 7.66576e-08
vernier = 0.00200448
vernier = 0.00100224
Gmin = 7.64754e-08
vernier = 0.00133632
vernier = 0.00178176
vernier = 0.000890878
Gmin = 7.62883e-08
vernier = 0.00118784
vernier = 0.00158378
Gmin = 7.60715e-08
vernier = 0.000791891
vernier = 0.00105585
Gmin = 7.59461e-08
vernier = 0.00140781
vernier = 0.00187707
vernier = 0.000938537
Gmin = 7.5746e-08
vernier = 0.00125138
Gmin = 7.55389e-08
vernier = 0.00166851
vernier = 0.000834255
vernier = 0.00111234
Gmin = 7.53947e-08
vernier = 0.00148312
Gmin = 7.51435e-08
vernier = 0.00197749
vernier = 0.000988746
vernier = 0.00131833
Gmin = 7.49766e-08
vernier = 0.00175777
vernier = 0.000878885
Gmin = 7.48203e-08
vernier = 0.00117185
vernier = 0.00156246
vernier = 0.00078123
Gmin = 7.46597e-08
vernier = 0.00104164
vernier = 0.00138885
Gmin = 7.44737e-08
vernier = 0.0018518
vernier = 0.000925902
Gmin = 7.42929e-08
vernier = 0.00123454
vernier = 0.00164605
vernier = 0.000823024
Gmin = 7.41212e-08
vernier = 0.00109736
Gmin = 7.39435e-08
vernier = 0.00146315
vernier = 0.000731576
vernier = 0.000975435
Gmin = 7.38196e-08
vernier = 0.00130058
Gmin = 7.36039e-08
vernier = 0.00173411
vernier = 0.000867053
vernier = 0.00115607
Gmin = 7.34605e-08
vernier = 0.00154143
vernier = 0.000770713
Gmin = 7.33262e-08
vernier = 0.00102762
vernier = 0.00137016
Gmin = 7.3113e-08
vernier = 0.00182687
vernier = 0.000913437
vernier = 0.00121792
Gmin = 7.29574e-08
vernier = 0.00162389
vernier = 0.000811944
Gmin = 7.28021e-08
vernier = 0.00108259
vernier = 0.00144345
vernier = 0.000721727
Gmin = 7.26545e-08
vernier = 0.000962303
Gmin = 7.25017e-08
vernier = 0.00128307
vernier = 0.00171076
vernier = 0.00085538
Gmin = 7.23294e-08
vernier = 0.00114051
Gmin = 7.21441e-08
vernier = 0.00152067
vernier = 0.000760337
vernier = 0.00101378
Gmin = 7.20208e-08
vernier = 0.00135171
vernier = 0.00180228
Gmin = 7.1788e-08
vernier = 0.00090114
vernier = 0.00120152
Gmin = 7.16533e-08
vernier = 0.00160203
vernier = 0.000801013
vernier = 0.00106802
Gmin = 7.15196e-08
vernier = 0.00142402
vernier = 0.000712011
Gmin = 7.1386e-08
vernier = 0.000949348
vernier = 0.0012658
Gmin = 7.1214e-08
vernier = 0.00168773
vernier = 0.000843864
Gmin = 7.1064e-08
vernier = 0.00112515
vernier = 0.0015002
vernier = 0.000750101
Gmin = 7.09159e-08
vernier = 0.00100013
Gmin = 7.07565e-08
vernier = 0.00133351
vernier = 0.00177802
vernier = 0.000889008
Gmin = 7.05837e-08
vernier = 0.00118534
vernier = 0.00158046
Gmin = 7.03836e-08
vernier = 0.000790229
vernier = 0.00105364
Gmin = 7.02678e-08
vernier = 0.00140485
vernier = 0.000702425
vernier = 0.000936567
Gmin = 7.01528e-08
vernier = 0.00124876
Gmin = 6.99614e-08
vernier = 0.00166501
vernier = 0.000832504
vernier = 0.00111
Gmin = 6.98281e-08
vernier = 0.00148001
vernier = 0.000740003
Gmin = 6.96991e-08
vernier = 0.00098667
vernier = 0.00131556
Gmin = 6.95145e-08
vernier = 0.00175408
vernier = 0.00087704
Gmin = 6.93699e-08
vernier = 0.00116939
vernier = 0.00155918
vernier = 0.00077959
Gmin = 6.92213e-08
vernier = 0.00103945
vernier = 0.00138594
Gmin = 6.90492e-08
vernier = 0.000692969
vernier = 0.000923958
Gmin = 6.89496e-08
vernier = 0.00123194
vernier = 0.00164259
vernier = 0.000821296
Gmin = 6.87905e-08
vernier = 0.00109506
Gmin = 6.8626e-08
vernier = 0.00146008
vernier = 0.00073004
vernier = 0.000973387
Gmin = 6.85113e-08
vernier = 0.00129785
Gmin = 6.83115e-08
vernier = 0.00173046
vernier = 0.000865232
vernier = 0.00115364
Gmin = 6.81787e-08
vernier = 0.00153819
vernier = 0.000769095
Gmin = 6.80543e-08
vernier = 0.00102546
vernier = 0.00136728
vernier = 0.00068364
Gmin = 6.79265e-08
vernier = 0.000911519
vernier = 0.00121536
Gmin = 6.77783e-08
vernier = 0.00162048
vernier = 0.000810239
Gmin = 6.76343e-08
vernier = 0.00108032
vernier = 0.00144042
vernier = 0.000720212
Gmin = 6.74975e-08
vernier = 0.000960283
Gmin = 6.73558e-08
vernier = 0.00128038
vernier = 0.000640188
vernier = 0.000853584
Gmin = 6.72571e-08
vernier = 0.00113811
Gmin = 6.70851e-08
vernier = 0.00151748
vernier = 0.000758741
vernier = 0.00101165
Gmin = 6.69707e-08
vernier = 0.00134887
vernier = 0.000674436
Gmin = 6.68635e-08
vernier = 0.000899248
vernier = 0.001199
Gmin = 6.66934e-08
vernier = 0.00159866
vernier = 0.000799331
vernier = 0.00106577
Gmin = 6.65692e-08
vernier = 0.00142103
vernier = 0.000710516
Gmin = 6.64451e-08
vernier = 0.000947355
vernier = 0.00126314
vernier = 0.00063157
Gmin = 6.63272e-08
vernier = 0.000842093
Gmin = 6.62052e-08
vernier = 0.00112279
vernier = 0.00149705
vernier = 0.000748526
Gmin = 6.60675e-08
vernier = 0.000998035
Gmin = 6.59193e-08
vernier = 0.00133071
vernier = 0.000665357
vernier = 0.000887142
Gmin = 6.58207e-08
vernier = 0.00118286
vernier = 0.00157714
Gmin = 6.56345e-08
vernier = 0.00078857
vernier = 0.00105143
Gmin = 6.55268e-08
vernier = 0.0014019
vernier = 0.000700951
vernier = 0.000934601
Gmin = 6.54197e-08
vernier = 0.00124613
vernier = 0.000623067
Gmin = 6.53128e-08
vernier = 0.000830756
vernier = 0.00110767
Gmin = 6.5175e-08
vernier = 0.0014769
vernier = 0.000738449
Gmin = 6.50548e-08
vernier = 0.000984599
vernier = 0.0013128
vernier = 0.000656399
Gmin = 6.49362e-08
vernier = 0.000875199
Gmin = 6.48085e-08
vernier = 0.00116693
vernier = 0.00155591
vernier = 0.000777954
Gmin = 6.467e-08
vernier = 0.00103727
vernier = 0.00138303
Gmin = 6.45095e-08
vernier = 0.000691514
vernier = 0.000922019
Gmin = 6.44166e-08
vernier = 0.00122936
vernier = 0.000614679
vernier = 0.000819572
Gmin = 6.43243e-08
vernier = 0.00109276
Gmin = 6.41707e-08
vernier = 0.00145702
vernier = 0.000728508
vernier = 0.000971344
Gmin = 6.40637e-08
vernier = 0.00129512
vernier = 0.000647562
Gmin = 6.39601e-08
vernier = 0.000863416
vernier = 0.00115122
Gmin = 6.38119e-08
vernier = 0.00153496
vernier = 0.000767481
Gmin = 6.36957e-08
vernier = 0.00102331
vernier = 0.00136441
vernier = 0.000682205
Gmin = 6.35763e-08
vernier = 0.000909606
vernier = 0.00121281
Gmin = 6.34379e-08
vernier = 0.000606404
vernier = 0.000808538
Gmin = 6.33578e-08
vernier = 0.00107805
vernier = 0.0014374
vernier = 0.0007187
Gmin = 6.32299e-08
vernier = 0.000958267
Gmin = 6.30975e-08
vernier = 0.00127769
vernier = 0.000638844
vernier = 0.000851792
Gmin = 6.30052e-08
vernier = 0.00113572
Gmin = 6.28444e-08
vernier = 0.0015143
vernier = 0.000757148
vernier = 0.00100953
Gmin = 6.27375e-08
vernier = 0.00134604
vernier = 0.00067302
Gmin = 6.26373e-08
vernier = 0.00089736
vernier = 0.00119648
vernier = 0.00059824
Gmin = 6.25343e-08
vernier = 0.000797653
vernier = 0.00106354
Gmin = 6.2415e-08
vernier = 0.00141805
vernier = 0.000709025
Gmin = 6.22989e-08
vernier = 0.000945366
vernier = 0.00126049
vernier = 0.000630244
Gmin = 6.21886e-08
vernier = 0.000840325
Gmin = 6.20744e-08
vernier = 0.00112043
vernier = 0.00149391
vernier = 0.000746955
Gmin = 6.19456e-08
vernier = 0.00099594
Gmin = 6.1807e-08
vernier = 0.00132792
vernier = 0.00066396
vernier = 0.00088528
Gmin = 6.17147e-08
vernier = 0.00118037
vernier = 0.000590186
Gmin = 6.16283e-08
vernier = 0.000786915
vernier = 0.00104922
Gmin = 6.1491e-08
vernier = 0.00139896
vernier = 0.000699479
vernier = 0.000932639
Gmin = 6.13908e-08
vernier = 0.00124352
vernier = 0.000621759
Gmin = 6.12907e-08
vernier = 0.000829012
vernier = 0.00110535
Gmin = 6.11617e-08
vernier = 0.0014738
vernier = 0.000736899
Gmin = 6.10491e-08
vernier = 0.000982532
vernier = 0.00131004
vernier = 0.000655021
Gmin = 6.0938e-08
vernier = 0.000873361
Gmin = 6.08184e-08
vernier = 0.00116448
vernier = 0.000582241
vernier = 0.000776321
Gmin = 6.07388e-08
vernier = 0.00103509
vernier = 0.00138013
Gmin = 6.05883e-08
vernier = 0.000690063
vernier = 0.000920083
Gmin = 6.05013e-08
vernier = 0.00122678
vernier = 0.000613389
vernier = 0.000817851
Gmin = 6.04148e-08
vernier = 0.00109047
Gmin = 6.02709e-08
vernier = 0.00145396
vernier = 0.000726979
vernier = 0.000969305
Gmin = 6.01705e-08
vernier = 0.00129241
vernier = 0.000646203
Gmin = 6.00734e-08
vernier = 0.000861604
vernier = 0.0011488
vernier = 0.000574402
Gmin = 5.99775e-08
vernier = 0.00076587
Gmin = 5.98743e-08
vernier = 0.00102116
vernier = 0.00136155
vernier = 0.000680773
Gmin = 5.97623e-08
vernier = 0.000907697
vernier = 0.00121026
Gmin = 5.96325e-08
vernier = 0.000605131
vernier = 0.000806841
Gmin = 5.95574e-08
vernier = 0.00107579
vernier = 0.000537894
Gmin = 5.94614e-08
vernier = 0.000717192
vernier = 0.000956255
Gmin = 5.93531e-08
vernier = 0.00127501
vernier = 0.000637503
Gmin = 5.92586e-08
vernier = 0.000850004
vernier = 0.00113334
vernier = 0.000566669
Gmin = 5.91653e-08
vernier = 0.000755559
Gmin = 5.90648e-08
vernier = 0.00100741
vernier = 0.00134322
vernier = 0.000671608
Gmin = 5.89558e-08
vernier = 0.000895477
vernier = 0.00119397
Gmin = 5.88295e-08
vernier = 0.000596984
vernier = 0.000795979
Gmin = 5.87563e-08
vernier = 0.0010613
vernier = 0.000530652
vernier = 0.000707536
Gmin = 5.86836e-08
vernier = 0.000943382
Gmin = 5.85627e-08
vernier = 0.00125784
vernier = 0.000628921
vernier = 0.000838561
Gmin = 5.84783e-08
vernier = 0.00111808
vernier = 0.000559041
Gmin = 5.83967e-08
vernier = 0.000745387
vernier = 0.000993849
Gmin = 5.82798e-08
vernier = 0.00132513
vernier = 0.000662566
Gmin = 5.81882e-08
vernier = 0.000883421
vernier = 0.00117789
vernier = 0.000588947
Gmin = 5.8094e-08
vernier = 0.000785263
vernier = 0.00104702
Gmin = 5.79849e-08
vernier = 0.000523508
vernier = 0.000698011
Gmin = 5.79217e-08
vernier = 0.000930681
vernier = 0.00124091
vernier = 0.000620454
Gmin = 5.78207e-08
vernier = 0.000827272
Gmin = 5.77162e-08
vernier = 0.00110303
vernier = 0.000551514
vernier = 0.000735352
Gmin = 5.76433e-08
vernier = 0.00098047
Gmin = 5.75162e-08
vernier = 0.00130729
vernier = 0.000653646
vernier = 0.000871528
Gmin = 5.74317e-08
vernier = 0.00116204
vernier = 0.000581019
Gmin = 5.73525e-08
vernier = 0.000774691
vernier = 0.00103292
vernier = 0.000516461
Gmin = 5.72712e-08
vernier = 0.000688614
vernier = 0.000918152
Gmin = 5.71768e-08
vernier = 0.0012242
vernier = 0.000612101
Gmin = 5.7085e-08
vernier = 0.000816135
vernier = 0.00108818
vernier = 0.00054409
Gmin = 5.69977e-08
vernier = 0.000725453
Gmin = 5.69073e-08
vernier = 0.00096727
vernier = 0.00128969
vernier = 0.000644846
Gmin = 5.68054e-08
vernier = 0.000859795
Gmin = 5.66956e-08
vernier = 0.00114639
vernier = 0.000573197
vernier = 0.000764262
Gmin = 5.66225e-08
vernier = 0.00101902
vernier = 0.000509508
Gmin = 5.6554e-08
vernier = 0.000679344
vernier = 0.000905791
Gmin = 5.64453e-08
vernier = 0.00120772
vernier = 0.000603861
vernier = 0.000805147
Gmin = 5.63658e-08
vernier = 0.00107353
vernier = 0.000536765
Gmin = 5.62865e-08
vernier = 0.000715686
vernier = 0.000954248
Gmin = 5.61842e-08
vernier = 0.00127233
vernier = 0.000636165
Gmin = 5.60949e-08
vernier = 0.00084822
vernier = 0.00113096
vernier = 0.00056548
Gmin = 5.60068e-08
vernier = 0.000753973
Gmin = 5.59118e-08
vernier = 0.0010053
vernier = 0.000502648
vernier = 0.000670198
Gmin = 5.58487e-08
vernier = 0.000893597
vernier = 0.00119146
Gmin = 5.57292e-08
vernier = 0.000595731
vernier = 0.000794308
Gmin = 5.56601e-08
vernier = 0.00105908
vernier = 0.000529538
vernier = 0.000706051
Gmin = 5.55914e-08
vernier = 0.000941401
Gmin = 5.5477e-08
vernier = 0.0012552
vernier = 0.000627601
vernier = 0.000836801
Gmin = 5.53973e-08
vernier = 0.00111573
vernier = 0.000557867
Gmin = 5.53201e-08
vernier = 0.000743823
vernier = 0.000991763
vernier = 0.000495882
Gmin = 5.52439e-08
vernier = 0.000661175
Gmin = 5.51618e-08
vernier = 0.000881567
vernier = 0.00117542
vernier = 0.000587711
Gmin = 5.50727e-08
vernier = 0.000783615
vernier = 0.00104482
Gmin = 5.49694e-08
vernier = 0.00052241
vernier = 0.000696546
Gmin = 5.49096e-08
vernier = 0.000928728
vernier = 0.0012383
vernier = 0.000619152
Gmin = 5.48141e-08
vernier = 0.000825535
Gmin = 5.47152e-08
vernier = 0.00110071
vernier = 0.000550357
vernier = 0.000733809
Gmin = 5.46462e-08
vernier = 0.000978411
vernier = 0.000489206
Gmin = 5.45794e-08
vernier = 0.000652274
vernier = 0.000869699
Gmin = 5.44839e-08
vernier = 0.0011596
vernier = 0.000579799
Gmin = 5.44089e-08
vernier = 0.000773065
vernier = 0.00103075
vernier = 0.000515377
Gmin = 5.43318e-08
vernier = 0.000687169
vernier = 0.000916225
Gmin = 5.42425e-08
vernier = 0.00122163
vernier = 0.000610816
Gmin = 5.41556e-08
vernier = 0.000814421
vernier = 0.00108589
vernier = 0.000542947
Gmin = 5.4073e-08
vernier = 0.00072393
Gmin = 5.39874e-08
vernier = 0.000965239
vernier = 0.00048262
vernier = 0.000643493
Gmin = 5.39277e-08
vernier = 0.00085799
Gmin = 5.38237e-08
vernier = 0.00114399
vernier = 0.000571993
vernier = 0.000762658
Gmin = 5.37545e-08
vernier = 0.00101688
vernier = 0.000508438
Gmin = 5.36896e-08
vernier = 0.000677917
vernier = 0.00090389
Gmin = 5.35866e-08
vernier = 0.00120519
vernier = 0.000602593
vernier = 0.000803457
Gmin = 5.35113e-08
vernier = 0.00107128
vernier = 0.000535638
Gmin = 5.34362e-08
vernier = 0.000714184
vernier = 0.000952245
vernier = 0.000476122
Gmin = 5.33647e-08
vernier = 0.00063483
Gmin = 5.32906e-08
vernier = 0.000846439
vernier = 0.00112859
vernier = 0.000564293
Gmin = 5.32071e-08
vernier = 0.00075239
Gmin = 5.31171e-08
vernier = 0.00100319
vernier = 0.000501593
vernier = 0.000668791
Gmin = 5.30572e-08
vernier = 0.000891721
vernier = 0.00118896
Gmin = 5.29439e-08
vernier = 0.000594481
vernier = 0.000792641
Gmin = 5.28784e-08
vernier = 0.00105685
vernier = 0.000528427
vernier = 0.000704569
Gmin = 5.28133e-08
vernier = 0.000939425
vernier = 0.000469713
Gmin = 5.27482e-08
vernier = 0.000626283
vernier = 0.000835044
Gmin = 5.26643e-08
vernier = 0.00111339
vernier = 0.000556696
Gmin = 5.25911e-08
vernier = 0.000742261
vernier = 0.000989681
vernier = 0.000494841
Gmin = 5.25187e-08
vernier = 0.000659787
Gmin = 5.24408e-08
vernier = 0.000879716
vernier = 0.00117295
vernier = 0.000586477
Gmin = 5.23563e-08
vernier = 0.00078197
vernier = 0.00104263
Gmin = 5.22583e-08
vernier = 0.000521313
vernier = 0.000695084
Gmin = 5.22016e-08
vernier = 0.000926778
vernier = 0.000463389
vernier = 0.000617852
Gmin = 5.21452e-08
vernier = 0.000823802
Gmin = 5.20513e-08
vernier = 0.0010984
vernier = 0.000549201
vernier = 0.000732268
Gmin = 5.19859e-08
vernier = 0.000976358
vernier = 0.000488179
Gmin = 5.19225e-08
vernier = 0.000650905
vernier = 0.000867873
Gmin = 5.18317e-08
vernier = 0.00115716
vernier = 0.000578582
Gmin = 5.17606e-08
vernier = 0.000771442
vernier = 0.00102859
vernier = 0.000514295
Gmin = 5.16874e-08
vernier = 0.000685726
vernier = 0.000914301
Gmin = 5.16026e-08
vernier = 0.000457151
vernier = 0.000609534
Gmin = 5.15535e-08
vernier = 0.000812712
vernier = 0.00108362
vernier = 0.000541808
Gmin = 5.1475e-08
vernier = 0.00072241
Gmin = 5.13937e-08
vernier = 0.000963213
vernier = 0.000481607
vernier = 0.000642142
Gmin = 5.1337e-08
vernier = 0.000856189
Gmin = 5.12382e-08
vernier = 0.00114159
vernier = 0.000570793
vernier = 0.000761057
Gmin = 5.11725e-08
vernier = 0.00101474
vernier = 0.000507371
Gmin = 5.11108e-08
vernier = 0.000676494
vernier = 0.000901992
vernier = 0.000450996
Gmin = 5.10475e-08
vernier = 0.000601328
vernier = 0.000801771
Gmin = 5.0974e-08
vernier = 0.00106903
vernier = 0.000534514
Gmin = 5.09025e-08
vernier = 0.000712685
vernier = 0.000950246
vernier = 0.000475123
Gmin = 5.08346e-08
vernier = 0.000633497
Gmin = 5.07642e-08
vernier = 0.000844663
vernier = 0.00112622
vernier = 0.000563108
Gmin = 5.06847e-08
vernier = 0.000750811
Gmin = 5.05992e-08
vernier = 0.00100108
vernier = 0.00050054
vernier = 0.000667387
Gmin = 5.05422e-08
vernier = 0.000889849
vernier = 0.000444925
Gmin = 5.04889e-08
vernier = 0.000593233
vernier = 0.000790977
Gmin = 5.04041e-08
vernier = 0.00105464
vernier = 0.000527318
vernier = 0.00070309
Gmin = 5.03421e-08
vernier = 0.000937453
vernier = 0.000468727
Gmin = 5.02802e-08
vernier = 0.000624969
vernier = 0.000833291
Gmin = 5.02004e-08
vernier = 0.00111105
vernier = 0.000555527
Gmin = 5.01308e-08
vernier = 0.000740703
vernier = 0.000987604
vernier = 0.000493802
Gmin = 5.0062e-08
vernier = 0.000658402
Gmin = 4.99879e-08
vernier = 0.00087787
vernier = 0.000438935
vernier = 0.000585246
Gmin = 4.99385e-08
vernier = 0.000780328
vernier = 0.00104044
Gmin = 4.98452e-08
vernier = 0.000520219
vernier = 0.000693625
Gmin = 4.97913e-08
vernier = 0.000924833
vernier = 0.000462416
vernier = 0.000616555
Gmin = 4.97376e-08
vernier = 0.000822073
Gmin = 4.96482e-08
vernier = 0.0010961
vernier = 0.000548049
vernier = 0.000730731
Gmin = 4.95859e-08
vernier = 0.000974308
vernier = 0.000487154
Gmin = 4.95256e-08
vernier = 0.000649538
vernier = 0.000866051
vernier = 0.000433026
Gmin = 4.9466e-08
vernier = 0.000577367
Gmin = 4.94017e-08
vernier = 0.000769823
vernier = 0.00102643
vernier = 0.000513215
Gmin = 4.93321e-08
vernier = 0.000684287
vernier = 0.000912382
Gmin = 4.92513e-08
vernier = 0.000456191
vernier = 0.000608254
Gmin = 4.92045e-08
vernier = 0.000811006
vernier = 0.00108134
vernier = 0.00054067
Gmin = 4.91297e-08
vernier = 0.000720894
Gmin = 4.90523e-08
vernier = 0.000961191
vernier = 0.000480596
vernier = 0.000640794
Gmin = 4.89983e-08
vernier = 0.000854392
vernier = 0.000427196
Gmin = 4.8946e-08
vernier = 0.000569594
vernier = 0.000759459
Gmin = 4.88712e-08
vernier = 0.00101261
vernier = 0.000506306
Gmin = 4.88124e-08
vernier = 0.000675074
vernier = 0.000900099
vernier = 0.000450049
Gmin = 4.87521e-08
vernier = 0.000600066
vernier = 0.000800088
Gmin = 4.8682e-08
vernier = 0.00106678
vernier = 0.000533392
Gmin = 4.86139e-08
vernier = 0.000711189
vernier = 0.000948251
vernier = 0.000474126
Gmin = 4.85491e-08
vernier = 0.000632167
Gmin = 4.84821e-08
vernier = 0.000842889
vernier = 0.000421445
vernier = 0.000561926
Gmin = 4.84353e-08
vernier = 0.000749235
Gmin = 4.83537e-08
vernier = 0.000998979
vernier = 0.00049949
vernier = 0.000665986
Gmin = 4.82994e-08
vernier = 0.000887981
vernier = 0.000443991
Gmin = 4.82485e-08
vernier = 0.000591987
vernier = 0.000789316
Gmin = 4.81676e-08
vernier = 0.00105242
vernier = 0.000526211
vernier = 0.000701614
Gmin = 4.81085e-08
vernier = 0.000935485
vernier = 0.000467743
Gmin = 4.80495e-08
vernier = 0.000623657
vernier = 0.000831542
vernier = 0.000415771
Gmin = 4.79933e-08
vernier = 0.000554361
Gmin = 4.79352e-08
vernier = 0.000739148
vernier = 0.000985531
vernier = 0.000492765
Gmin = 4.78695e-08
vernier = 0.00065702
Gmin = 4.77988e-08
vernier = 0.000876027
vernier = 0.000438013
vernier = 0.000584018
Gmin = 4.77518e-08
vernier = 0.00077869
vernier = 0.00103825
Gmin = 4.76628e-08
vernier = 0.000519127
vernier = 0.000692169
Gmin = 4.76112e-08
vernier = 0.000922891
vernier = 0.000461446
vernier = 0.000615261
Gmin = 4.756e-08
vernier = 0.000820347
vernier = 0.000410174
Gmin = 4.75088e-08
vernier = 0.000546898
vernier = 0.000729197
Gmin = 4.74428e-08
vernier = 0.000972263
vernier = 0.000486131
Gmin = 4.73852e-08
vernier = 0.000648175
vernier = 0.000864233
vernier = 0.000432117
Gmin = 4.73283e-08
vernier = 0.000576155
Gmin = 4.7267e-08
vernier = 0.000768207
vernier = 0.00102428
vernier = 0.000512138
Gmin = 4.72005e-08
vernier = 0.00068285
vernier = 0.000910467
Gmin = 4.71233e-08
vernier = 0.000455233
vernier = 0.000606978
Gmin = 4.70787e-08
vernier = 0.000809303
vernier = 0.000404652
vernier = 0.000539535
Gmin = 4.70342e-08
vernier = 0.00071938
Gmin = 4.69603e-08
vernier = 0.000959174
vernier = 0.000479587
vernier = 0.000639449
Gmin = 4.69087e-08
vernier = 0.000852598
vernier = 0.000426299
Gmin = 4.68588e-08
vernier = 0.000568399
vernier = 0.000757865
Gmin = 4.67872e-08
vernier = 0.00101049
vernier = 0.000505243
Gmin = 4.67311e-08
vernier = 0.000673657
vernier = 0.000898209
vernier = 0.000449105
Gmin = 4.66735e-08
vernier = 0.000598806
vernier = 0.000798408
Gmin = 4.66065e-08
vernier = 0.000598806
vernier = 0.000798408
vernier = 0.000598806
Gmin = 4.6567e-08
vernier = 0.000798408
vernier = 0.000598806
Gmin = 4.65113e-08
vernier = 0.000798407
vernier = 0.000598806
vernier = 0.000798407
vernier = 0.000598805
Gmin = 4.64695e-08
vernier = 0.000798407
vernier = 0.000598805
Gmin = 4.64139e-08
vernier = 0.000798407
vernier = 0.000598805
vernier = 0.000798407
vernier = 0.000598805
Gmin = 4.63723e-08
vernier = 0.000798406
vernier = 0.000598805
Gmin = 4.63168e-08
vernier = 0.000798406
vernier = 0.000598805
vernier = 0.000798406
Gmin = 4.6259e-08
vernier = 0.000598804
vernier = 0.000798406
vernier = 0.000598804
Gmin = 4.62198e-08
vernier = 0.000798406
vernier = 0.000598804
Gmin = 4.61645e-08
vernier = 0.000798405
vernier = 0.000598804
vernier = 0.000798405
vernier = 0.000598804
Gmin = 4.6123e-08
vernier = 0.000798405
vernier = 0.000598804
Gmin = 4.60678e-08
vernier = 0.000798405
vernier = 0.000598804
vernier = 0.000798405
vernier = 0.000598803
Gmin = 4.60265e-08
vernier = 0.000798404
vernier = 0.000598803
Gmin = 4.59714e-08
vernier = 0.000798404
vernier = 0.000598803
vernier = 0.000798404
Gmin = 4.59141e-08
vernier = 0.000598803
vernier = 0.000798404
vernier = 0.000598803
Gmin = 4.58752e-08
vernier = 0.000798404
vernier = 0.000598803
Gmin = 4.58203e-08
vernier = 0.000798403
vernier = 0.000598803
vernier = 0.000798403
vernier = 0.000598802
Gmin = 4.57791e-08
vernier = 0.000798403
vernier = 0.000598802
Gmin = 4.57243e-08
vernier = 0.000798403
vernier = 0.000598802
vernier = 0.000798403
vernier = 0.000598802
Gmin = 4.56833e-08
vernier = 0.000798402
vernier = 0.000598802
Gmin = 4.56286e-08
vernier = 0.000798402
vernier = 0.000598802
vernier = 0.000798402
Gmin = 4.55717e-08
vernier = 0.000598801
vernier = 0.000798402
vernier = 0.000598801
Gmin = 4.55331e-08
vernier = 0.000798402
vernier = 0.000598801
Gmin = 4.54786e-08
vernier = 0.000798401
vernier = 0.000598801
vernier = 0.000798401
vernier = 0.000598801
Gmin = 4.54378e-08
vernier = 0.000798401
vernier = 0.000598801
Gmin = 4.53834e-08
vernier = 0.000798401
vernier = 0.000598801
vernier = 0.000798401
vernier = 0.0005988
Gmin = 4.53426e-08
vernier = 0.0007984
vernier = 0.0005988
Gmin = 4.52884e-08
vernier = 0.0007984
vernier = 0.0005988
vernier = 0.0007984
Gmin = 4.52319e-08
vernier = 0.0005988
vernier = 0.0007984
vernier = 0.0005988
Gmin = 4.51936e-08
vernier = 0.0007984
vernier = 0.0005988
Gmin = 4.51395e-08
vernier = 0.000798399
vernier = 0.0005988
vernier = 0.000798399
vernier = 0.000598799
Gmin = 4.5099e-08
vernier = 0.000798399
vernier = 0.000598799
vernier = 0.000449099
Gmin = 0
Gmin stepping failed

Starting source stepping with srcstepmethod=0
Source Step = 3.0303%
Source Step = 33.3333%
vernier = 0.25
Source Step = 32.0076%
Source Step = 33.9015%
Source Step = 35.7955%
Source Step = 37.6894%
Source Step = 39.5833%
vernier = 0.09375
Source Step = 42.2348%
Source Step = 45.0758%
Source Step = 47.9167%
Source Step = 50.7576%
Source Step = 53.5985%
vernier = 0.140625
Source Step = 57.4337%
Source Step = 61.6951%
Source Step = 65.9564%
Source Step = 70.2178%
Source Step = 71.9423%
Source Step = 72.0089%
Source Step = 72.0755%
Source Step = 72.1421%
Source Step = 72.2087%
Source Step = 72.2752%
vernier = 0.0032959
Source Step = 72.3685%
Source Step = 72.4683%
Source Step = 72.5682%
Source Step = 72.6681%
Source Step = 72.768%
vernier = 0.00494385
Source Step = 72.9028%
Source Step = 73.0526%
Source Step = 73.2024%
Source Step = 73.3522%
Source Step = 73.502%
vernier = 0.00741577
Source Step = 73.6968%
Source Step = 73.9215%
Source Step = 74.1462%
Source Step = 74.371%
Source Step = 74.5957%
vernier = 0.0111237
Source Step = 74.8766%
Source Step = 75.2137%
Source Step = 75.5507%
Source Step = 75.8878%
Source Step = 76.2249%
vernier = 0.0166855
Source Step = 76.6294%
Source Step = 77.135%
Source Step = 77.6406%
Source Step = 78.1463%
Source Step = 78.6519%
vernier = 0.0250282
Source Step = 79.2334%
Source Step = 79.9918%
Source Step = 80.7502%
Source Step = 81.5086%
Source Step = 82.2671%
vernier = 0.0375423
Source Step = 83.1014%
Source Step = 84.239%
Source Step = 85.3766%
Source Step = 86.5143%
Source Step = 87.6519%
vernier = 0.0563135
Source Step = 88.8465%
Source Step = 90.5529%
Source Step = 92.2594%
Source Step = 92.2781%
Source Step = 92.3047%
Source Step = 92.3314%
Source Step = 92.3581%
Source Step = 92.3847%
Source Step = 92.4114%
vernier = 0.00131985
Source Step = 92.4501%
Source Step = 92.4901%
Source Step = 92.53%
Source Step = 92.57%
Source Step = 92.61%
vernier = 0.00197977
Source Step = 92.666%
Source Step = 92.726%
Source Step = 92.786%
Source Step = 92.846%
Source Step = 92.906%
vernier = 0.00296966
Source Step = 92.987%
Source Step = 93.077%
Source Step = 93.167%
Source Step = 93.257%
Source Step = 93.347%
vernier = 0.00445449
Source Step = 93.4639%
Source Step = 93.5989%
Source Step = 93.7339%
Source Step = 93.8689%
Source Step = 94.0039%
vernier = 0.00668173
Source Step = 94.1726%
Source Step = 94.3751%
Source Step = 94.5776%
Source Step = 94.78%
Source Step = 94.9825%
vernier = 0.0100226
Source Step = 95.2255%
Source Step = 95.5292%
Source Step = 95.8329%
Source Step = 96.1366%
Source Step = 96.4403%
vernier = 0.0150339
Source Step = 96.7896%
Source Step = 97.2452%
Source Step = 97.7008%
Source Step = 98.1563%
Source Step = 98.6119%
vernier = 0.0225508
Source Step = 99.113%
Source Step = 99.7964%
Source stepping succeeded in finding the operating point.

Total elapsed time: 1.234 seconds.

