LTspice 24.0.11 for Windows
Circuit: * C:\Users\rahim\Downloads\Coding Projects\Audio_Amplifier\LTSpice_simulations\Class AB\DC Bias\Class_AB_Audio Amplifier_DC_Bias.asc
Start Time: Sat Jun  8 13:13:34 2024
solver = Normal
Maximum thread count: 8
tnom = 27
temp = 27
method = modified trap
Direct Newton iteration failed to find .op point.  (Use ".option noopiter" to skip.)
Starting Gmin stepping
Gmin = 10
Gmin = 1.07374
Gmin = 0.115292
Gmin = 0.0123794
Gmin = 0.00132923
Gmin = 0.000142725
Gmin = 1.5325e-05
Gmin = 1.6455e-06
vernier = 0.5
vernier = 0.25
vernier = 0.125
Gmin = 1.20746e-06
vernier = 0.166667
vernier = 0.222222
Gmin = 8.16442e-07
vernier = 0.111111
vernier = 0.148148
Gmin = 6.16131e-07
vernier = 0.074074
vernier = 0.0987653
Gmin = 5.1009e-07
vernier = 0.0493827
Gmin = 4.45886e-07
vernier = 0.0658435
vernier = 0.0877914
vernier = 0.0438957
Gmin = 3.95548e-07
vernier = 0.0585276
vernier = 0.0292638
Gmin = 3.69106e-07
vernier = 0.0390184
vernier = 0.0520245
vernier = 0.0260122
Gmin = 3.43737e-07
vernier = 0.034683
vernier = 0.046244
Gmin = 3.1644e-07
vernier = 0.023122
vernier = 0.0308293
Gmin = 3.01599e-07
vernier = 0.0154146
vernier = 0.0205529
Gmin = 2.90598e-07
vernier = 0.0274038
vernier = 0.0137019
Gmin = 2.80833e-07
vernier = 0.0182692
vernier = 0.0243589
vernier = 0.0121795
Gmin = 2.715e-07
vernier = 0.0162393
Gmin = 2.61776e-07
vernier = 0.0216524
vernier = 0.0108262
vernier = 0.0144349
Gmin = 2.55486e-07
vernier = 0.0192465
vernier = 0.00962327
Gmin = 2.49124e-07
vernier = 0.012831
vernier = 0.017108
Gmin = 2.40694e-07
vernier = 0.00855401
vernier = 0.0114053
Gmin = 2.36112e-07
vernier = 0.0152071
vernier = 0.00760356
Gmin = 2.3014e-07
vernier = 0.0101381
Gmin = 2.24955e-07
vernier = 0.0135174
vernier = 0.0180232
vernier = 0.00901162
Gmin = 2.19458e-07
vernier = 0.0120155
vernier = 0.0160207
Gmin = 2.13239e-07
vernier = 0.00801033
vernier = 0.0106804
Gmin = 2.09713e-07
vernier = 0.0142406
vernier = 0.00712029
vernier = 0.00949371
Gmin = 2.06262e-07
vernier = 0.0126583
vernier = 0.00632914
Gmin = 2.02867e-07
vernier = 0.00843885
vernier = 0.0112518
vernier = 0.0056259
Gmin = 1.99685e-07
vernier = 0.0075012
Gmin = 1.96438e-07
vernier = 0.0100016
vernier = 0.0050008
vernier = 0.00666773
Gmin = 1.94201e-07
vernier = 0.0088903
Gmin = 1.90359e-07
vernier = 0.0118537
vernier = 0.00592687
vernier = 0.00790249
Gmin = 1.8784e-07
vernier = 0.0105366
vernier = 0.00526832
Gmin = 1.85506e-07
vernier = 0.00702443
vernier = 0.0093659
vernier = 0.00468295
Gmin = 1.83134e-07
vernier = 0.00624394
vernier = 0.00832524
Gmin = 1.80417e-07
vernier = 0.00416262
vernier = 0.00555016
Gmin = 1.7886e-07
vernier = 0.00740021
vernier = 0.00986695
vernier = 0.00493347
Gmin = 1.76398e-07
vernier = 0.00657796
Gmin = 1.73879e-07
vernier = 0.00877062
vernier = 0.00438531
vernier = 0.00584708
Gmin = 1.72142e-07
vernier = 0.0077961
vernier = 0.00389805
Gmin = 1.70473e-07
vernier = 0.0051974
vernier = 0.00692986
vernier = 0.00346493
Gmin = 1.6884e-07
vernier = 0.00461991
Gmin = 1.67094e-07
vernier = 0.00615988
vernier = 0.00821317
vernier = 0.00410658
Gmin = 1.65219e-07
vernier = 0.00547544
vernier = 0.00730059
Gmin = 1.63068e-07
vernier = 0.00365029
vernier = 0.00486706
Gmin = 1.61833e-07
vernier = 0.00648941
vernier = 0.0032447
vernier = 0.00432627
Gmin = 1.60613e-07
vernier = 0.00576836
Gmin = 1.586e-07
vernier = 0.00769114
vernier = 0.00384557
vernier = 0.00512743
Gmin = 1.57209e-07
vernier = 0.00683657
vernier = 0.00341828
Gmin = 1.55872e-07
vernier = 0.00455771
vernier = 0.00607695
vernier = 0.00303847
Gmin = 1.54561e-07
vernier = 0.0040513
Gmin = 1.5316e-07
vernier = 0.00540173
vernier = 0.00270086
vernier = 0.00360115
Gmin = 1.52232e-07
vernier = 0.00480153
vernier = 0.00640204
Gmin = 1.50492e-07
vernier = 0.00320102
vernier = 0.00426803
Gmin = 1.49492e-07
vernier = 0.0056907
vernier = 0.00284535
vernier = 0.0037938
Gmin = 1.48503e-07
vernier = 0.0050584
vernier = 0.0025292
Gmin = 1.47521e-07
vernier = 0.00337227
vernier = 0.00449635
Gmin = 1.46262e-07
vernier = 0.00599514
vernier = 0.00299757
Gmin = 1.45171e-07
vernier = 0.00399676
vernier = 0.00532901
vernier = 0.0026645
Gmin = 1.441e-07
vernier = 0.00355267
Gmin = 1.42953e-07
vernier = 0.00473689
vernier = 0.00236845
vernier = 0.00315793
Gmin = 1.42193e-07
vernier = 0.00421057
vernier = 0.00561409
Gmin = 1.40767e-07
vernier = 0.00280705
vernier = 0.00374273
Gmin = 1.39946e-07
vernier = 0.0049903
vernier = 0.00249515
vernier = 0.00332687
Gmin = 1.39134e-07
vernier = 0.00443582
vernier = 0.00221791
Gmin = 1.38327e-07
vernier = 0.00295721
vernier = 0.00394295
Gmin = 1.37291e-07
vernier = 0.00525726
vernier = 0.00262863
Gmin = 1.36393e-07
vernier = 0.00350484
vernier = 0.00467312
vernier = 0.00233656
Gmin = 1.35509e-07
vernier = 0.00311541
Gmin = 1.34563e-07
vernier = 0.00415388
vernier = 0.00207694
vernier = 0.00276926
Gmin = 1.33936e-07
vernier = 0.00369234
vernier = 0.00492312
Gmin = 1.32757e-07
vernier = 0.00246156
vernier = 0.00328208
Gmin = 1.32078e-07
vernier = 0.0043761
vernier = 0.00218805
vernier = 0.0029174
Gmin = 1.31406e-07
vernier = 0.00388987
vernier = 0.00194493
Gmin = 1.30737e-07
vernier = 0.00259324
vernier = 0.00345766
Gmin = 1.29878e-07
vernier = 0.00461021
vernier = 0.0023051
Gmin = 1.29132e-07
vernier = 0.00307347
vernier = 0.00409796
vernier = 0.00204898
Gmin = 1.28399e-07
vernier = 0.00273197
Gmin = 1.27612e-07
vernier = 0.00364263
vernier = 0.00182132
vernier = 0.00242842
Gmin = 1.2709e-07
vernier = 0.00323789
vernier = 0.00431719
Gmin = 1.26109e-07
vernier = 0.00215859
vernier = 0.00287813
Gmin = 1.25543e-07
vernier = 0.0038375
vernier = 0.00191875
vernier = 0.00255833
Gmin = 1.24982e-07
vernier = 0.00341111
Gmin = 1.24054e-07
vernier = 0.00454814
vernier = 0.00227407
vernier = 0.0030321
Gmin = 1.23409e-07
vernier = 0.00404279
vernier = 0.0020214
Gmin = 1.22787e-07
vernier = 0.00269519
vernier = 0.00359359
vernier = 0.0017968
Gmin = 1.22175e-07
vernier = 0.00239573
Gmin = 1.21519e-07
vernier = 0.0031943
vernier = 0.00425907
vernier = 0.00212953
Gmin = 1.20809e-07
vernier = 0.00283938
vernier = 0.00378584
Gmin = 1.1999e-07
vernier = 0.00189292
vernier = 0.00252389
Gmin = 1.19518e-07
vernier = 0.00336519
vernier = 0.00168259
vernier = 0.00224346
Gmin = 1.1905e-07
vernier = 0.00299128
Gmin = 1.18274e-07
vernier = 0.00398837
vernier = 0.00199418
vernier = 0.00265891
Gmin = 1.17735e-07
vernier = 0.00354521
vernier = 0.00177261
Gmin = 1.17214e-07
vernier = 0.00236347
vernier = 0.0031513
vernier = 0.00157565
Gmin = 1.16702e-07
vernier = 0.00210087
Gmin = 1.16152e-07
vernier = 0.00280115
vernier = 0.00373487
vernier = 0.00186743
Gmin = 1.15557e-07
vernier = 0.00248991
vernier = 0.00331988
Gmin = 1.1487e-07
vernier = 0.00165994
vernier = 0.00221325
Gmin = 1.14473e-07
vernier = 0.00295101
vernier = 0.0014755
vernier = 0.00196734
Gmin = 1.1408e-07
vernier = 0.00262311
Gmin = 1.13428e-07
vernier = 0.00349749
vernier = 0.00174874
vernier = 0.00233166
Gmin = 1.12974e-07
vernier = 0.00310887
vernier = 0.00155444
Gmin = 1.12536e-07
vernier = 0.00207258
vernier = 0.00276344
Gmin = 1.11911e-07
vernier = 0.00368459
vernier = 0.00184229
Gmin = 1.11423e-07
vernier = 0.00245639
vernier = 0.00327519
vernier = 0.00163759
Gmin = 1.10922e-07
vernier = 0.00218346
vernier = 0.00291128
Gmin = 1.10344e-07
vernier = 0.00145564
vernier = 0.00194085
Gmin = 1.10009e-07
vernier = 0.0025878
vernier = 0.0034504
vernier = 0.0017252
Gmin = 1.09477e-07
vernier = 0.00230027
Gmin = 1.08928e-07
vernier = 0.00306702
vernier = 0.00153351
vernier = 0.00204468
Gmin = 1.08546e-07
vernier = 0.00272624
vernier = 0.00136312
Gmin = 1.08177e-07
vernier = 0.00181749
vernier = 0.00242332
Gmin = 1.0765e-07
vernier = 0.0032311
vernier = 0.00161555
Gmin = 1.07237e-07
vernier = 0.00215406
vernier = 0.00287208
vernier = 0.00143604
Gmin = 1.06815e-07
vernier = 0.00191472
vernier = 0.00255296
Gmin = 1.06326e-07
vernier = 0.00340395
vernier = 0.00170197
Gmin = 1.05852e-07
vernier = 0.0022693
vernier = 0.00302573
vernier = 0.00151287
Gmin = 1.05403e-07
vernier = 0.00201715
Gmin = 1.04939e-07
vernier = 0.00268954
vernier = 0.00134477
vernier = 0.00179302
Gmin = 1.04616e-07
vernier = 0.0023907
Gmin = 1.04055e-07
vernier = 0.0031876
vernier = 0.0015938
vernier = 0.00212506
Gmin = 1.03683e-07
vernier = 0.00283342
vernier = 0.00141671
Gmin = 1.03334e-07
vernier = 0.00188894
vernier = 0.00251859
vernier = 0.0012593
Gmin = 1.02977e-07
vernier = 0.00167906
vernier = 0.00223875
Gmin = 1.02564e-07
vernier = 0.002985
vernier = 0.0014925
Gmin = 1.02163e-07
vernier = 0.00199
vernier = 0.00265333
vernier = 0.00132666
Gmin = 1.01783e-07
vernier = 0.00176889
Gmin = 1.0139e-07
vernier = 0.00235851
vernier = 0.00314468
vernier = 0.00157234
Gmin = 1.00947e-07
vernier = 0.00209646
Gmin = 1.00472e-07
vernier = 0.00279527
vernier = 0.00139764
vernier = 0.00186351
Gmin = 1.00157e-07
vernier = 0.00248469
vernier = 0.00124234
Gmin = 9.9862e-08
vernier = 0.00165646
vernier = 0.00220861
Gmin = 9.93945e-08
vernier = 0.00294481
vernier = 0.00147241
vernier = 0.00196321
Gmin = 9.90537e-08
vernier = 0.00261761
vernier = 0.0013088
Gmin = 9.87141e-08
vernier = 0.00174507
vernier = 0.00232676
vernier = 0.00116338
Gmin = 9.83917e-08
vernier = 0.00155117
Gmin = 9.80584e-08
vernier = 0.00206823
vernier = 0.00275764
vernier = 0.00137882
Gmin = 9.76832e-08
vernier = 0.00183843
Gmin = 9.72801e-08
vernier = 0.00245124
vernier = 0.00122562
vernier = 0.00163416
Gmin = 9.70122e-08
vernier = 0.00217887
vernier = 0.00290517
Gmin = 9.65072e-08
vernier = 0.00145258
vernier = 0.00193678
Gmin = 9.62157e-08
vernier = 0.00258237
vernier = 0.00129118
vernier = 0.00172158
Gmin = 9.59263e-08
vernier = 0.00229544
vernier = 0.00114772
Gmin = 9.56378e-08
vernier = 0.00153029
vernier = 0.00204039
Gmin = 9.52666e-08
vernier = 0.00272052
vernier = 0.00136026
Gmin = 9.49433e-08
vernier = 0.00181368
vernier = 0.00241824
vernier = 0.00120912
Gmin = 9.46246e-08
vernier = 0.00161216
Gmin = 9.4282e-08
vernier = 0.00214954
vernier = 0.00107477
vernier = 0.00143303
Gmin = 9.40544e-08
vernier = 0.0019107
vernier = 0.0025476
Gmin = 9.36249e-08
vernier = 0.0012738
vernier = 0.0016984
Gmin = 9.33768e-08
vernier = 0.00226453
vernier = 0.00113227
vernier = 0.00150969
Gmin = 9.31305e-08
vernier = 0.00201292
Gmin = 9.27214e-08
vernier = 0.00268389
vernier = 0.00134195
vernier = 0.00178926
Gmin = 9.24367e-08
vernier = 0.00238568
vernier = 0.00119284
Gmin = 9.21615e-08
vernier = 0.00159045
vernier = 0.0021206
vernier = 0.0010603
Gmin = 9.18902e-08
vernier = 0.00141374
Gmin = 9.15984e-08
vernier = 0.00188498
vernier = 0.00251331
vernier = 0.00125665
Gmin = 9.12825e-08
vernier = 0.00167554
vernier = 0.00223405
Gmin = 9.09169e-08
vernier = 0.00111702
vernier = 0.00148937
Gmin = 9.07056e-08
vernier = 0.00198582
vernier = 0.00099291
vernier = 0.00132388
Gmin = 9.04957e-08
vernier = 0.00176517
Gmin = 9.0147e-08
vernier = 0.00235356
vernier = 0.00117678
vernier = 0.00156904
Gmin = 8.99043e-08
vernier = 0.00209205
vernier = 0.00104603
Gmin = 8.96695e-08
vernier = 0.0013947
vernier = 0.0018596
Gmin = 8.93341e-08
vernier = 0.00247947
vernier = 0.00123974
Gmin = 8.90715e-08
vernier = 0.00165298
vernier = 0.00220397
vernier = 0.00110199
Gmin = 8.8802e-08
vernier = 0.00146931
vernier = 0.00195909
Gmin = 8.849e-08
vernier = 0.000979543
vernier = 0.00130606
Gmin = 8.83097e-08
vernier = 0.00174141
vernier = 0.00232188
vernier = 0.00116094
Gmin = 8.80218e-08
vernier = 0.00154792
Gmin = 8.77244e-08
vernier = 0.00206389
vernier = 0.00103194
vernier = 0.00137593
Gmin = 8.75172e-08
vernier = 0.00183457
Gmin = 8.71567e-08
vernier = 0.00244609
vernier = 0.00122304
vernier = 0.00163073
Gmin = 8.69173e-08
vernier = 0.0021743
vernier = 0.00108715
Gmin = 8.66932e-08
vernier = 0.00144953
vernier = 0.00193271
vernier = 0.000966356
Gmin = 8.64631e-08
vernier = 0.00128847
vernier = 0.00171796
Gmin = 8.61967e-08
vernier = 0.00229062
vernier = 0.00114531
Gmin = 8.5938e-08
vernier = 0.00152708
vernier = 0.0020361
vernier = 0.00101805
Gmin = 8.56923e-08
vernier = 0.0013574
Gmin = 8.54383e-08
vernier = 0.00180987
vernier = 0.000904935
vernier = 0.00120658
Gmin = 8.52613e-08
vernier = 0.00160877
Gmin = 8.49533e-08
vernier = 0.00214503
vernier = 0.00107251
vernier = 0.00143002
Gmin = 8.47486e-08
vernier = 0.00190669
vernier = 0.000953346
Gmin = 8.45569e-08
vernier = 0.00127113
vernier = 0.00169484
Gmin = 8.4253e-08
vernier = 0.00225978
vernier = 0.00112989
vernier = 0.00150652
Gmin = 8.40312e-08
vernier = 0.00200869
vernier = 0.00100435
Gmin = 8.381e-08
vernier = 0.00133913
vernier = 0.0017855
vernier = 0.000892752
Gmin = 8.35998e-08
vernier = 0.00119034
Gmin = 8.33825e-08
vernier = 0.00158711
vernier = 0.00211615
vernier = 0.00105808
Gmin = 8.31375e-08
vernier = 0.00141077
Gmin = 8.28741e-08
vernier = 0.00188102
vernier = 0.000940511
vernier = 0.00125401
Gmin = 8.26989e-08
vernier = 0.00167202
vernier = 0.00222936
Gmin = 8.23684e-08
vernier = 0.00111468
vernier = 0.00148624
Gmin = 8.21773e-08
vernier = 0.00198165
vernier = 0.000990826
vernier = 0.0013211
Gmin = 8.19876e-08
vernier = 0.00176147
vernier = 0.000880733
Gmin = 8.17983e-08
vernier = 0.00117431
vernier = 0.00156575
Gmin = 8.15545e-08
vernier = 0.00208766
vernier = 0.00104383
Gmin = 8.1342e-08
vernier = 0.00139177
vernier = 0.0018557
vernier = 0.00092785
Gmin = 8.11324e-08
vernier = 0.00123713
Gmin = 8.09069e-08
vernier = 0.00164951
vernier = 0.00219935
vernier = 0.00109967
Gmin = 8.06627e-08
vernier = 0.00146623
vernier = 0.00195497
Gmin = 8.03799e-08
vernier = 0.000977487
vernier = 0.00130332
Gmin = 8.02164e-08
vernier = 0.00173775
vernier = 0.000868876
vernier = 0.0011585
Gmin = 8.00539e-08
vernier = 0.00154467
Gmin = 7.97839e-08
vernier = 0.00205956
vernier = 0.00102978
vernier = 0.00137304
Gmin = 7.95959e-08
vernier = 0.00183072
vernier = 0.000915358
Gmin = 7.9414e-08
vernier = 0.00122048
vernier = 0.0016273
vernier = 0.000813652
Gmin = 7.92345e-08
vernier = 0.00108487
Gmin = 7.90414e-08
vernier = 0.00144649
vernier = 0.00192865
vernier = 0.000964327
Gmin = 7.88321e-08
vernier = 0.00128577
vernier = 0.00171436
Gmin = 7.85896e-08
vernier = 0.000857179
vernier = 0.00114291
Gmin = 7.84494e-08
vernier = 0.00152387
vernier = 0.00203183
vernier = 0.00101592
Gmin = 7.82256e-08
vernier = 0.00135455
Gmin = 7.79942e-08
vernier = 0.00180607
vernier = 0.000903035
vernier = 0.00120405
Gmin = 7.7833e-08
vernier = 0.0016054
vernier = 0.000802698
Gmin = 7.7677e-08
vernier = 0.00107026
vernier = 0.00142702
Gmin = 7.74539e-08
vernier = 0.00190269
vernier = 0.000951345
Gmin = 7.72791e-08
vernier = 0.00126846
vernier = 0.00169128
vernier = 0.000845639
Gmin = 7.70997e-08
vernier = 0.00112752
vernier = 0.00150336
Gmin = 7.68917e-08
vernier = 0.00200448
vernier = 0.00100224
Gmin = 7.66897e-08
vernier = 0.00133632
vernier = 0.00178176
vernier = 0.000890878
Gmin = 7.64978e-08
vernier = 0.00118784
Gmin = 7.62993e-08
vernier = 0.00158378
vernier = 0.000791891
vernier = 0.00105585
Gmin = 7.6161e-08
vernier = 0.00140781
Gmin = 7.59202e-08
vernier = 0.00187707
vernier = 0.000938537
vernier = 0.00125138
Gmin = 7.57601e-08
vernier = 0.00166851
vernier = 0.000834255
Gmin = 7.56101e-08
vernier = 0.00111234
vernier = 0.00148312
Gmin = 7.53722e-08
vernier = 0.00197749
vernier = 0.000988746
vernier = 0.00131833
Gmin = 7.51986e-08
vernier = 0.00175777
vernier = 0.000878885
Gmin = 7.50253e-08
vernier = 0.00117185
vernier = 0.00156246
vernier = 0.00078123
Gmin = 7.48607e-08
vernier = 0.00104164
Gmin = 7.46903e-08
vernier = 0.00138885
vernier = 0.0018518
vernier = 0.000925902
Gmin = 7.44983e-08
vernier = 0.00123454
Gmin = 7.42916e-08
vernier = 0.00164605
vernier = 0.000823024
vernier = 0.00109736
Gmin = 7.41542e-08
vernier = 0.00146315
vernier = 0.000731576
Gmin = 7.40255e-08
vernier = 0.000975435
vernier = 0.00130058
Gmin = 7.38212e-08
vernier = 0.00173411
vernier = 0.000867053
vernier = 0.00115607
Gmin = 7.3672e-08
vernier = 0.00154143
vernier = 0.000770713
Gmin = 7.35232e-08
vernier = 0.00102762
vernier = 0.00137016
Gmin = 7.33314e-08
vernier = 0.00182687
vernier = 0.000913437
Gmin = 7.31642e-08
vernier = 0.00121792
vernier = 0.00162389
vernier = 0.000811944
Gmin = 7.29991e-08
vernier = 0.00108259
Gmin = 7.28216e-08
vernier = 0.00144345
vernier = 0.000721727
vernier = 0.000962303
Gmin = 7.27034e-08
vernier = 0.00128307
vernier = 0.00171076
Gmin = 7.24803e-08
vernier = 0.00085538
vernier = 0.00114051
Gmin = 7.23513e-08
vernier = 0.00152067
vernier = 0.000760337
vernier = 0.00101378
Gmin = 7.2223e-08
vernier = 0.00135171
Gmin = 7.20098e-08
vernier = 0.00180228
vernier = 0.00090114
vernier = 0.00120152
Gmin = 7.18613e-08
vernier = 0.00160203
vernier = 0.000801013
Gmin = 7.17176e-08
vernier = 0.00106802
vernier = 0.00142402
vernier = 0.000712011
Gmin = 7.15757e-08
vernier = 0.000949348
Gmin = 7.1423e-08
vernier = 0.0012658
vernier = 0.00168773
vernier = 0.000843864
Gmin = 7.12575e-08
vernier = 0.00112515
vernier = 0.0015002
Gmin = 7.10657e-08
vernier = 0.000750101
vernier = 0.00100013
Gmin = 7.09547e-08
vernier = 0.00133351
vernier = 0.00177802
vernier = 0.000889008
Gmin = 7.07775e-08
vernier = 0.00118534
Gmin = 7.05943e-08
vernier = 0.00158046
vernier = 0.000790229
vernier = 0.00105364
Gmin = 7.04666e-08
vernier = 0.00140485
vernier = 0.000702425
Gmin = 7.03429e-08
vernier = 0.000936567
vernier = 0.00124876
Gmin = 7.01661e-08
vernier = 0.00166501
vernier = 0.000832504
Gmin = 7.00276e-08
vernier = 0.00111
vernier = 0.00148001
vernier = 0.000740003
Gmin = 6.98852e-08
vernier = 0.00098667
vernier = 0.00131556
Gmin = 6.97202e-08
vernier = 0.00175408
vernier = 0.00087704
Gmin = 6.95599e-08
vernier = 0.00116939
vernier = 0.00155918
vernier = 0.00077959
Gmin = 6.94076e-08
vernier = 0.00103945
Gmin = 6.925e-08
vernier = 0.00138594
vernier = 0.000692969
vernier = 0.000923958
Gmin = 6.91401e-08
vernier = 0.00123194
Gmin = 6.89487e-08
vernier = 0.00164259
vernier = 0.000821296
vernier = 0.00109506
Gmin = 6.88215e-08
vernier = 0.00146008
vernier = 0.00073004
Gmin = 6.87023e-08
vernier = 0.000973387
vernier = 0.00129785
Gmin = 6.85131e-08
vernier = 0.00173046
vernier = 0.000865232
vernier = 0.00115364
Gmin = 6.83749e-08
vernier = 0.00153819
vernier = 0.000769095
Gmin = 6.8237e-08
vernier = 0.00102546
vernier = 0.00136728
vernier = 0.00068364
Gmin = 6.8106e-08
vernier = 0.000911519
Gmin = 6.79703e-08
vernier = 0.00121536
vernier = 0.00162048
vernier = 0.000810239
Gmin = 6.78173e-08
vernier = 0.00108032
Gmin = 6.76527e-08
vernier = 0.00144042
vernier = 0.000720212
vernier = 0.000960283
Gmin = 6.75432e-08
vernier = 0.00128038
vernier = 0.000640188
Gmin = 6.74406e-08
vernier = 0.000853584
vernier = 0.00113811
Gmin = 6.72777e-08
vernier = 0.00151748
vernier = 0.000758741
vernier = 0.00101165
Gmin = 6.71587e-08
vernier = 0.00134887
vernier = 0.000674436
Gmin = 6.70399e-08
vernier = 0.000899248
vernier = 0.001199
Gmin = 6.68869e-08
vernier = 0.00159866
vernier = 0.000799331
Gmin = 6.67534e-08
vernier = 0.00106577
vernier = 0.00142103
vernier = 0.000710516
Gmin = 6.66216e-08
vernier = 0.000947355
Gmin = 6.64798e-08
vernier = 0.00126314
vernier = 0.00063157
vernier = 0.000842093
Gmin = 6.63854e-08
vernier = 0.00112279
vernier = 0.00149705
Gmin = 6.62071e-08
vernier = 0.000748526
vernier = 0.000998035
Gmin = 6.61039e-08
vernier = 0.00133071
vernier = 0.000665357
vernier = 0.000887142
Gmin = 6.60014e-08
vernier = 0.00118286
Gmin = 6.58308e-08
vernier = 0.00157714
vernier = 0.00078857
vernier = 0.00105143
Gmin = 6.5712e-08
vernier = 0.0014019
vernier = 0.000700951
Gmin = 6.5597e-08
vernier = 0.000934601
vernier = 0.00124613
vernier = 0.000623067
Gmin = 6.54834e-08
vernier = 0.000830756
Gmin = 6.53611e-08
vernier = 0.00110767
vernier = 0.0014769
vernier = 0.000738449
Gmin = 6.52285e-08
vernier = 0.000984599
vernier = 0.0013128
Gmin = 6.50749e-08
vernier = 0.000656399
vernier = 0.000875199
Gmin = 6.49859e-08
vernier = 0.00116693
vernier = 0.00155591
vernier = 0.000777954
Gmin = 6.48439e-08
vernier = 0.00103727
Gmin = 6.4697e-08
vernier = 0.00138303
vernier = 0.000691514
vernier = 0.000922019
Gmin = 6.45946e-08
vernier = 0.00122936
vernier = 0.000614679
Gmin = 6.44954e-08
vernier = 0.000819572
vernier = 0.00109276
Gmin = 6.43535e-08
vernier = 0.00145702
vernier = 0.000728508
Gmin = 6.42423e-08
vernier = 0.000971344
vernier = 0.00129512
vernier = 0.000647562
Gmin = 6.4128e-08
vernier = 0.000863416
vernier = 0.00115122
Gmin = 6.39955e-08
vernier = 0.00153496
vernier = 0.000767481
Gmin = 6.38667e-08
vernier = 0.00102331
vernier = 0.00136441
vernier = 0.000682205
Gmin = 6.37443e-08
vernier = 0.000909606
Gmin = 6.36176e-08
vernier = 0.00121281
vernier = 0.000606404
vernier = 0.000808538
Gmin = 6.35292e-08
vernier = 0.00107805
Gmin = 6.33753e-08
vernier = 0.0014374
vernier = 0.0007187
vernier = 0.000958267
Gmin = 6.3273e-08
vernier = 0.00127769
vernier = 0.000638844
Gmin = 6.3177e-08
vernier = 0.000851792
vernier = 0.00113572
Gmin = 6.30248e-08
vernier = 0.0015143
vernier = 0.000757148
vernier = 0.00100953
Gmin = 6.29135e-08
vernier = 0.00134604
vernier = 0.00067302
Gmin = 6.28025e-08
vernier = 0.00089736
vernier = 0.00119648
vernier = 0.00059824
Gmin = 6.26969e-08
vernier = 0.000797653
Gmin = 6.25876e-08
vernier = 0.00106354
vernier = 0.00141805
vernier = 0.000709025
Gmin = 6.24644e-08
vernier = 0.000945366
Gmin = 6.23316e-08
vernier = 0.00126049
vernier = 0.000630244
vernier = 0.000840325
Gmin = 6.22433e-08
vernier = 0.00112043
vernier = 0.00149391
Gmin = 6.20765e-08
vernier = 0.000746955
vernier = 0.00099594
Gmin = 6.198e-08
vernier = 0.00132792
vernier = 0.00066396
vernier = 0.00088528
Gmin = 6.1884e-08
vernier = 0.00118037
vernier = 0.000590186
Gmin = 6.17882e-08
vernier = 0.000786915
vernier = 0.00104922
Gmin = 6.16648e-08
vernier = 0.00139896
vernier = 0.000699479
Gmin = 6.15571e-08
vernier = 0.000932639
vernier = 0.00124352
vernier = 0.000621759
Gmin = 6.14507e-08
vernier = 0.000829012
Gmin = 6.13362e-08
vernier = 0.00110535
vernier = 0.0014738
vernier = 0.000736899
Gmin = 6.12121e-08
vernier = 0.000982532
vernier = 0.00131004
Gmin = 6.10682e-08
vernier = 0.000655021
vernier = 0.000873361
Gmin = 6.09849e-08
vernier = 0.00116448
vernier = 0.000582241
vernier = 0.000776321
Gmin = 6.09021e-08
vernier = 0.00103509
Gmin = 6.07644e-08
vernier = 0.00138013
vernier = 0.000690063
vernier = 0.000920083
Gmin = 6.06684e-08
vernier = 0.00122678
vernier = 0.000613389
Gmin = 6.05754e-08
vernier = 0.000817851
vernier = 0.00109047
Gmin = 6.04424e-08
vernier = 0.00145396
vernier = 0.000726979
Gmin = 6.03382e-08
vernier = 0.000969305
vernier = 0.00129241
vernier = 0.000646203
Gmin = 6.02311e-08
vernier = 0.000861604
vernier = 0.0011488
Gmin = 6.01069e-08
vernier = 0.000574402
vernier = 0.00076587
Gmin = 6.0035e-08
vernier = 0.00102116
vernier = 0.00136155
vernier = 0.000680773
Gmin = 5.99202e-08
vernier = 0.000907697
Gmin = 5.98013e-08
vernier = 0.00121026
vernier = 0.000605131
vernier = 0.000806841
Gmin = 5.97185e-08
vernier = 0.00107579
vernier = 0.000537894
Gmin = 5.96302e-08
vernier = 0.000717192
vernier = 0.000956255
Gmin = 5.95216e-08
vernier = 0.00127501
vernier = 0.000637503
Gmin = 5.94268e-08
vernier = 0.000850004
vernier = 0.00113334
vernier = 0.000566669
Gmin = 5.93332e-08
vernier = 0.000755559
Gmin = 5.92325e-08
vernier = 0.00100741
vernier = 0.00134322
vernier = 0.000671608
Gmin = 5.91232e-08
vernier = 0.000895477
vernier = 0.00119397
Gmin = 5.89965e-08
vernier = 0.000596984
vernier = 0.000795979
Gmin = 5.89232e-08
vernier = 0.0010613
vernier = 0.000530652
vernier = 0.000707536
Gmin = 5.88503e-08
vernier = 0.000943382
Gmin = 5.8729e-08
vernier = 0.00125784
vernier = 0.000628921
vernier = 0.000838561
Gmin = 5.86444e-08
vernier = 0.00111808
vernier = 0.000559041
Gmin = 5.85625e-08
vernier = 0.000745387
vernier = 0.000993849
Gmin = 5.84453e-08
vernier = 0.00132513
vernier = 0.000662566
Gmin = 5.83534e-08
vernier = 0.000883421
vernier = 0.00117789
vernier = 0.000588947
Gmin = 5.8259e-08
vernier = 0.000785263
vernier = 0.00104702
Gmin = 5.81495e-08
vernier = 0.000523508
vernier = 0.000698011
Gmin = 5.80861e-08
vernier = 0.000930681
vernier = 0.00124091
vernier = 0.000620454
Gmin = 5.79849e-08
vernier = 0.000827272
Gmin = 5.788e-08
vernier = 0.00110303
vernier = 0.000551514
vernier = 0.000735352
Gmin = 5.78069e-08
vernier = 0.00098047
Gmin = 5.76796e-08
vernier = 0.00130729
vernier = 0.000653646
vernier = 0.000871528
Gmin = 5.75948e-08
vernier = 0.00116204
vernier = 0.000581019
Gmin = 5.75154e-08
vernier = 0.000774691
vernier = 0.00103292
vernier = 0.000516461
Gmin = 5.74338e-08
vernier = 0.000688614
vernier = 0.000918152
Gmin = 5.73391e-08
vernier = 0.0012242
vernier = 0.000612101
Gmin = 5.7247e-08
vernier = 0.000816135
vernier = 0.00108818
vernier = 0.00054409
Gmin = 5.71595e-08
vernier = 0.000725453
Gmin = 5.70689e-08
vernier = 0.00096727
vernier = 0.00128969
vernier = 0.000644846
Gmin = 5.69666e-08
vernier = 0.000859795
Gmin = 5.68566e-08
vernier = 0.00114639
vernier = 0.000573197
vernier = 0.000764262
Gmin = 5.67833e-08
vernier = 0.00101902
vernier = 0.000509508
Gmin = 5.67146e-08
vernier = 0.000679344
vernier = 0.000905791
Gmin = 5.66056e-08
vernier = 0.00120772
vernier = 0.000603861
vernier = 0.000805147
Gmin = 5.65259e-08
vernier = 0.00107353
vernier = 0.000536765
Gmin = 5.64463e-08
vernier = 0.000715686
vernier = 0.000954248
Gmin = 5.63437e-08
vernier = 0.00127233
vernier = 0.000636165
Gmin = 5.62542e-08
vernier = 0.00084822
vernier = 0.00113096
vernier = 0.00056548
Gmin = 5.61658e-08
vernier = 0.000753973
Gmin = 5.60706e-08
vernier = 0.0010053
vernier = 0.000502648
vernier = 0.000670198
Gmin = 5.60072e-08
vernier = 0.000893597
vernier = 0.00119146
Gmin = 5.58875e-08
vernier = 0.000595731
vernier = 0.000794308
Gmin = 5.58181e-08
vernier = 0.00105908
vernier = 0.000529538
vernier = 0.000706051
Gmin = 5.57492e-08
vernier = 0.000941401
Gmin = 5.56345e-08
vernier = 0.0012552
vernier = 0.000627601
vernier = 0.000836801
Gmin = 5.55546e-08
vernier = 0.00111573
vernier = 0.000557867
Gmin = 5.54772e-08
vernier = 0.000743823
vernier = 0.000991763
vernier = 0.000495882
Gmin = 5.54007e-08
vernier = 0.000661175
Gmin = 5.53184e-08
vernier = 0.000881567
vernier = 0.00117542
vernier = 0.000587711
Gmin = 5.5229e-08
vernier = 0.000783615
vernier = 0.00104482
Gmin = 5.51255e-08
vernier = 0.00052241
vernier = 0.000696546
Gmin = 5.50655e-08
vernier = 0.000928728
vernier = 0.0012383
vernier = 0.000619152
Gmin = 5.49697e-08
vernier = 0.000825535
Gmin = 5.48705e-08
vernier = 0.00110071
vernier = 0.000550357
vernier = 0.000733809
Gmin = 5.48014e-08
vernier = 0.000978411
vernier = 0.000489206
Gmin = 5.47344e-08
vernier = 0.000652274
vernier = 0.000869699
Gmin = 5.46386e-08
vernier = 0.0011596
vernier = 0.000579799
Gmin = 5.45634e-08
vernier = 0.000773065
vernier = 0.00103075
vernier = 0.000515377
Gmin = 5.44861e-08
vernier = 0.000687169
vernier = 0.000916225
Gmin = 5.43965e-08
vernier = 0.00122163
vernier = 0.000610816
Gmin = 5.43093e-08
vernier = 0.000814421
vernier = 0.00108589
vernier = 0.000542947
Gmin = 5.42265e-08
vernier = 0.00072393
Gmin = 5.41407e-08
vernier = 0.000965239
vernier = 0.00048262
vernier = 0.000643493
Gmin = 5.40808e-08
vernier = 0.00085799
Gmin = 5.39766e-08
vernier = 0.00114399
vernier = 0.000571993
vernier = 0.000762658
Gmin = 5.39071e-08
vernier = 0.00101688
vernier = 0.000508438
Gmin = 5.38421e-08
vernier = 0.000677917
vernier = 0.00090389
Gmin = 5.37388e-08
vernier = 0.00120519
vernier = 0.000602593
vernier = 0.000803457
Gmin = 5.36633e-08
vernier = 0.00107128
vernier = 0.000535638
Gmin = 5.35879e-08
vernier = 0.000714184
vernier = 0.000952245
vernier = 0.000476122
Gmin = 5.35162e-08
vernier = 0.00063483
Gmin = 5.34419e-08
vernier = 0.000846439
vernier = 0.00112859
vernier = 0.000564293
Gmin = 5.33581e-08
vernier = 0.00075239
Gmin = 5.32679e-08
vernier = 0.00100319
vernier = 0.000501593
vernier = 0.000668791
Gmin = 5.32078e-08
vernier = 0.000891721
vernier = 0.00118896
Gmin = 5.30943e-08
vernier = 0.000594481
vernier = 0.000792641
Gmin = 5.30285e-08
vernier = 0.00105685
vernier = 0.000528427
vernier = 0.000704569
Gmin = 5.29632e-08
vernier = 0.000939425
vernier = 0.000469713
Gmin = 5.28979e-08
vernier = 0.000626283
vernier = 0.000835044
Gmin = 5.28138e-08
vernier = 0.00111339
vernier = 0.000556696
Gmin = 5.27404e-08
vernier = 0.000742261
vernier = 0.000989681
vernier = 0.000494841
Gmin = 5.26678e-08
vernier = 0.000659787
Gmin = 5.25897e-08
vernier = 0.000879716
vernier = 0.00117295
vernier = 0.000586477
Gmin = 5.2505e-08
vernier = 0.00078197
vernier = 0.00104263
Gmin = 5.24067e-08
vernier = 0.000521313
vernier = 0.000695084
Gmin = 5.23498e-08
vernier = 0.000926778
vernier = 0.000463389
vernier = 0.000617852
Gmin = 5.22933e-08
vernier = 0.000823802
Gmin = 5.21991e-08
vernier = 0.0010984
vernier = 0.000549201
vernier = 0.000732268
Gmin = 5.21335e-08
vernier = 0.000976358
vernier = 0.000488179
Gmin = 5.20699e-08
vernier = 0.000650905
vernier = 0.000867873
Gmin = 5.19789e-08
vernier = 0.00115716
vernier = 0.000578582
Gmin = 5.19075e-08
vernier = 0.000771442
vernier = 0.00102859
vernier = 0.000514295
Gmin = 5.18342e-08
vernier = 0.000685726
vernier = 0.000914301
Gmin = 5.17491e-08
vernier = 0.000457151
vernier = 0.000609534
Gmin = 5.16998e-08
vernier = 0.000812712
vernier = 0.00108362
vernier = 0.000541808
Gmin = 5.16211e-08
vernier = 0.00072241
Gmin = 5.15396e-08
vernier = 0.000963213
vernier = 0.000481607
vernier = 0.000642142
Gmin = 5.14828e-08
vernier = 0.000856189
Gmin = 5.13837e-08
vernier = 0.00114159
vernier = 0.000570793
vernier = 0.000761057
Gmin = 5.13177e-08
vernier = 0.00101474
vernier = 0.000507371
Gmin = 5.12559e-08
vernier = 0.000676494
vernier = 0.000901992
vernier = 0.000450996
Gmin = 5.11924e-08
vernier = 0.000601328
vernier = 0.000801771
Gmin = 5.11187e-08
vernier = 0.00106903
vernier = 0.000534514
Gmin = 5.10471e-08
vernier = 0.000712685
vernier = 0.000950246
vernier = 0.000475123
Gmin = 5.09789e-08
vernier = 0.000633497
Gmin = 5.09083e-08
vernier = 0.000844663
vernier = 0.00112622
vernier = 0.000563108
Gmin = 5.08286e-08
vernier = 0.000750811
Gmin = 5.07429e-08
vernier = 0.00100108
vernier = 0.00050054
vernier = 0.000667387
Gmin = 5.06857e-08
vernier = 0.000889849
vernier = 0.000444925
Gmin = 5.06322e-08
vernier = 0.000593233
vernier = 0.000790977
Gmin = 5.05472e-08
vernier = 0.00105464
vernier = 0.000527318
vernier = 0.00070309
Gmin = 5.0485e-08
vernier = 0.000937453
vernier = 0.000468727
Gmin = 5.0423e-08
vernier = 0.000624969
vernier = 0.000833291
Gmin = 5.03429e-08
vernier = 0.00111105
vernier = 0.000555527
Gmin = 5.02731e-08
vernier = 0.000740703
vernier = 0.000987604
vernier = 0.000493802
Gmin = 5.02041e-08
vernier = 0.000658402
Gmin = 5.01298e-08
vernier = 0.00087787
vernier = 0.000438935
vernier = 0.000585246
Gmin = 5.00803e-08
vernier = 0.000780328
vernier = 0.00104044
Gmin = 4.99868e-08
vernier = 0.000520219
vernier = 0.000693625
Gmin = 4.99326e-08
vernier = 0.000924833
vernier = 0.000462416
vernier = 0.000616555
Gmin = 4.98788e-08
vernier = 0.000822073
Gmin = 4.97892e-08
vernier = 0.0010961
vernier = 0.000548049
vernier = 0.000730731
Gmin = 4.97267e-08
vernier = 0.000974308
vernier = 0.000487154
Gmin = 4.96662e-08
vernier = 0.000649538
vernier = 0.000866051
vernier = 0.000433026
Gmin = 4.96064e-08
vernier = 0.000577367
Gmin = 4.9542e-08
vernier = 0.000769823
vernier = 0.00102643
vernier = 0.000513215
Gmin = 4.94721e-08
vernier = 0.000684287
vernier = 0.000912382
Gmin = 4.93911e-08
vernier = 0.000456191
vernier = 0.000608254
Gmin = 4.93442e-08
vernier = 0.000811006
vernier = 0.00108134
vernier = 0.00054067
Gmin = 4.92692e-08
vernier = 0.000720894
Gmin = 4.91916e-08
vernier = 0.000961191
vernier = 0.000480596
vernier = 0.000640794
Gmin = 4.91374e-08
vernier = 0.000854392
vernier = 0.000427196
Gmin = 4.9085e-08
vernier = 0.000569594
vernier = 0.000759459
Gmin = 4.90099e-08
vernier = 0.00101261
vernier = 0.000506306
Gmin = 4.8951e-08
vernier = 0.000675074
vernier = 0.000900099
vernier = 0.000450049
Gmin = 4.88905e-08
vernier = 0.000600066
vernier = 0.000800088
Gmin = 4.88203e-08
vernier = 0.00106678
vernier = 0.000533392
Gmin = 4.8752e-08
vernier = 0.000711189
vernier = 0.000948251
vernier = 0.000474126
Gmin = 4.8687e-08
vernier = 0.000632167
Gmin = 4.86197e-08
vernier = 0.000842889
vernier = 0.000421445
vernier = 0.000561926
Gmin = 4.85728e-08
vernier = 0.000749235
Gmin = 4.8491e-08
vernier = 0.000998979
vernier = 0.00049949
vernier = 0.000665986
Gmin = 4.84365e-08
vernier = 0.000887981
vernier = 0.000443991
Gmin = 4.83855e-08
vernier = 0.000591987
vernier = 0.000789316
Gmin = 4.83044e-08
vernier = 0.00105242
vernier = 0.000526211
vernier = 0.000701614
Gmin = 4.82451e-08
vernier = 0.000935485
vernier = 0.000467743
Gmin = 4.81859e-08
vernier = 0.000623657
vernier = 0.000831542
vernier = 0.000415771
Gmin = 4.81296e-08
vernier = 0.000554361
Gmin = 4.80713e-08
vernier = 0.000739148
vernier = 0.000985531
vernier = 0.000492765
Gmin = 4.80055e-08
vernier = 0.00065702
Gmin = 4.79345e-08
vernier = 0.000876027
vernier = 0.000438013
vernier = 0.000584018
Gmin = 4.78873e-08
vernier = 0.00077869
vernier = 0.00103825
Gmin = 4.77981e-08
vernier = 0.000519127
vernier = 0.000692169
Gmin = 4.77464e-08
vernier = 0.000922891
vernier = 0.000461446
vernier = 0.000615261
Gmin = 4.7695e-08
vernier = 0.000820347
vernier = 0.000410174
Gmin = 4.76437e-08
vernier = 0.000546898
vernier = 0.000729197
Gmin = 4.75775e-08
vernier = 0.000972263
vernier = 0.000486131
Gmin = 4.75198e-08
vernier = 0.000648175
vernier = 0.000864233
vernier = 0.000432117
Gmin = 4.74627e-08
vernier = 0.000576155
Gmin = 4.74012e-08
vernier = 0.000768207
vernier = 0.00102428
vernier = 0.000512138
Gmin = 4.73345e-08
vernier = 0.00068285
vernier = 0.000910467
Gmin = 4.72571e-08
vernier = 0.000455233
vernier = 0.000606978
Gmin = 4.72123e-08
vernier = 0.000809303
vernier = 0.000404652
vernier = 0.000539535
Gmin = 4.71678e-08
vernier = 0.00071938
Gmin = 4.70936e-08
vernier = 0.000959174
vernier = 0.000479587
vernier = 0.000639449
Gmin = 4.70419e-08
vernier = 0.000852598
vernier = 0.000426299
Gmin = 4.69918e-08
vernier = 0.000568399
vernier = 0.000757865
Gmin = 4.69201e-08
vernier = 0.00101049
vernier = 0.000505243
Gmin = 4.68638e-08
vernier = 0.000673657
vernier = 0.000898209
vernier = 0.000449105
Gmin = 4.6806e-08
vernier = 0.000598806
vernier = 0.000798408
Gmin = 4.67389e-08
vernier = 0.000598806
vernier = 0.000798408
vernier = 0.000598806
Gmin = 4.66992e-08
vernier = 0.000798408
vernier = 0.000598806
Gmin = 4.66434e-08
vernier = 0.000798407
vernier = 0.000598806
vernier = 0.000798407
vernier = 0.000598805
Gmin = 4.66015e-08
vernier = 0.000798407
vernier = 0.000598805
Gmin = 4.65457e-08
vernier = 0.000798407
vernier = 0.000598805
vernier = 0.000798407
vernier = 0.000598805
Gmin = 4.65039e-08
vernier = 0.000798406
vernier = 0.000598805
Gmin = 4.64483e-08
vernier = 0.000798406
vernier = 0.000598805
vernier = 0.000798406
Gmin = 4.63904e-08
vernier = 0.000598804
vernier = 0.000798406
vernier = 0.000598804
Gmin = 4.6351e-08
vernier = 0.000798406
vernier = 0.000598804
Gmin = 4.62956e-08
vernier = 0.000798405
vernier = 0.000598804
vernier = 0.000798405
vernier = 0.000598804
Gmin = 4.6254e-08
vernier = 0.000798405
vernier = 0.000598804
Gmin = 4.61986e-08
vernier = 0.000798405
vernier = 0.000598804
vernier = 0.000798405
vernier = 0.000598803
Gmin = 4.61572e-08
vernier = 0.000798404
vernier = 0.000598803
Gmin = 4.61019e-08
vernier = 0.000798404
vernier = 0.000598803
vernier = 0.000798404
Gmin = 4.60444e-08
vernier = 0.000598803
vernier = 0.000798404
vernier = 0.000598803
Gmin = 4.60054e-08
vernier = 0.000798404
vernier = 0.000598803
Gmin = 4.59503e-08
vernier = 0.000798403
vernier = 0.000598803
vernier = 0.000798403
vernier = 0.000598802
Gmin = 4.59091e-08
vernier = 0.000798403
vernier = 0.000598802
Gmin = 4.58542e-08
vernier = 0.000798403
vernier = 0.000598802
vernier = 0.000798403
vernier = 0.000598802
Gmin = 4.5813e-08
vernier = 0.000798402
vernier = 0.000598802
Gmin = 4.57582e-08
vernier = 0.000798402
vernier = 0.000598802
vernier = 0.000798402
Gmin = 4.57011e-08
vernier = 0.000598801
vernier = 0.000798402
vernier = 0.000598801
Gmin = 4.56624e-08
vernier = 0.000798402
vernier = 0.000598801
Gmin = 4.56077e-08
vernier = 0.000798401
vernier = 0.000598801
vernier = 0.000798401
vernier = 0.000598801
Gmin = 4.55668e-08
vernier = 0.000798401
vernier = 0.000598801
Gmin = 4.55122e-08
vernier = 0.000798401
vernier = 0.000598801
vernier = 0.000798401
vernier = 0.0005988
Gmin = 4.54714e-08
vernier = 0.0007984
vernier = 0.0005988
Gmin = 4.5417e-08
vernier = 0.0007984
vernier = 0.0005988
vernier = 0.0007984
Gmin = 4.53603e-08
vernier = 0.0005988
vernier = 0.0007984
vernier = 0.0005988
Gmin = 4.53219e-08
vernier = 0.0007984
vernier = 0.0005988
Gmin = 4.52676e-08
vernier = 0.000798399
vernier = 0.0005988
vernier = 0.000798399
vernier = 0.000598799
Gmin = 4.5227e-08
vernier = 0.000798399
vernier = 0.000598799
Gmin = 4.51729e-08
vernier = 0.000798399
vernier = 0.000598799
vernier = 0.000798399
vernier = 0.000598799
Gmin = 4.51323e-08
vernier = 0.000798398
vernier = 0.000598799
Gmin = 4.50783e-08
vernier = 0.000798398
vernier = 0.000598799
vernier = 0.000798398
Gmin = 4.50221e-08
vernier = 0.000598799
vernier = 0.000798398
vernier = 0.000598798
Gmin = 4.49839e-08
vernier = 0.000798398
vernier = 0.000598798
Gmin = 4.49301e-08
vernier = 0.000798397
vernier = 0.000598798
vernier = 0.000798397
vernier = 0.000598798
Gmin = 4.48898e-08
vernier = 0.000798397
vernier = 0.000598798
Gmin = 4.4836e-08
vernier = 0.000798397
vernier = 0.000598798
vernier = 0.000798397
vernier = 0.000598797
Gmin = 4.47958e-08
vernier = 0.000798396
vernier = 0.000598797
Gmin = 4.47422e-08
vernier = 0.000798396
vernier = 0.000598797
vernier = 0.000798396
Gmin = 4.46864e-08
vernier = 0.000598797
vernier = 0.000798396
vernier = 0.000598797
Gmin = 4.46485e-08
vernier = 0.000798396
vernier = 0.000598797
Gmin = 4.45951e-08
vernier = 0.000798395
vernier = 0.000598797
vernier = 0.000798395
vernier = 0.000598796
Gmin = 4.45551e-08
vernier = 0.000798395
vernier = 0.000598796
Gmin = 4.45017e-08
vernier = 0.000798395
vernier = 0.000598796
vernier = 0.000798395
vernier = 0.000598796
Gmin = 4.44618e-08
vernier = 0.000798394
vernier = 0.000598796
Gmin = 4.44086e-08
vernier = 0.000798394
vernier = 0.000598796
vernier = 0.000798394
Gmin = 4.43532e-08
vernier = 0.000598796
vernier = 0.000798394
vernier = 0.000598795
Gmin = 4.43156e-08
vernier = 0.000798394
vernier = 0.000598795
Gmin = 4.42626e-08
vernier = 0.000798393
vernier = 0.000598795
vernier = 0.000798393
vernier = 0.000598795
Gmin = 4.42228e-08
vernier = 0.000798393
vernier = 0.000598795
Gmin = 4.41699e-08
vernier = 0.000798393
vernier = 0.000598795
vernier = 0.000798393
vernier = 0.000598794
Gmin = 4.41303e-08
vernier = 0.000798392
vernier = 0.000598794
Gmin = 4.40774e-08
vernier = 0.000798392
vernier = 0.000598794
vernier = 0.000798392
Gmin = 4.40225e-08
vernier = 0.000598794
vernier = 0.000798392
vernier = 0.000598794
Gmin = 4.39852e-08
vernier = 0.000798392
vernier = 0.000598794
Gmin = 4.39325e-08
vernier = 0.000798391
vernier = 0.000598794
vernier = 0.000798391
vernier = 0.000598793
Gmin = 4.38931e-08
vernier = 0.000798391
vernier = 0.000598793
Gmin = 4.38406e-08
vernier = 0.000798391
vernier = 0.000598793
vernier = 0.000798391
vernier = 0.000598793
Gmin = 4.38012e-08
vernier = 0.00079839
vernier = 0.000598793
Gmin = 4.37488e-08
vernier = 0.00079839
vernier = 0.000598793
vernier = 0.00079839
Gmin = 4.36942e-08
vernier = 0.000598793
vernier = 0.00079839
vernier = 0.000598792
Gmin = 4.36572e-08
vernier = 0.00079839
vernier = 0.000598792
Gmin = 4.36049e-08
vernier = 0.000798389
vernier = 0.000598792
vernier = 0.000798389
vernier = 0.000598792
Gmin = 4.35658e-08
vernier = 0.000798389
vernier = 0.000598792
Gmin = 4.35137e-08
vernier = 0.000798389
vernier = 0.000598792
vernier = 0.000798389
vernier = 0.000598791
Gmin = 4.34746e-08
vernier = 0.000798388
vernier = 0.000598791
Gmin = 4.34226e-08
vernier = 0.000798388
vernier = 0.000598791
vernier = 0.000798388
Gmin = 4.33684e-08
vernier = 0.000598791
vernier = 0.000798388
vernier = 0.000598791
Gmin = 4.33317e-08
vernier = 0.000798388
vernier = 0.000598791
Gmin = 4.32798e-08
vernier = 0.000798387
vernier = 0.000598791
vernier = 0.000798387
vernier = 0.00059879
Gmin = 4.3241e-08
vernier = 0.000798387
vernier = 0.00059879
Gmin = 4.31892e-08
vernier = 0.000798387
vernier = 0.00059879
vernier = 0.000798387
vernier = 0.00059879
Gmin = 4.31504e-08
vernier = 0.000798386
vernier = 0.00059879
Gmin = 4.30988e-08
vernier = 0.000798386
vernier = 0.00059879
vernier = 0.000798386
Gmin = 4.30451e-08
vernier = 0.00059879
vernier = 0.000798386
vernier = 0.000598789
Gmin = 4.30086e-08
vernier = 0.000798386
vernier = 0.000598789
Gmin = 4.29571e-08
vernier = 0.000798385
vernier = 0.000598789
vernier = 0.000798385
vernier = 0.000598789
Gmin = 4.29185e-08
vernier = 0.000798385
vernier = 0.000598789
Gmin = 4.28672e-08
vernier = 0.000798385
vernier = 0.000598789
vernier = 0.000798385
vernier = 0.000598788
Gmin = 4.28287e-08
vernier = 0.000798384
vernier = 0.000598788
Gmin = 4.27774e-08
vernier = 0.000798384
vernier = 0.000598788
vernier = 0.000798384
Gmin = 4.27241e-08
vernier = 0.000598788
vernier = 0.000798384
vernier = 0.000598788
Gmin = 4.26879e-08
vernier = 0.000798384
vernier = 0.000598788
Gmin = 4.26368e-08
vernier = 0.000798383
vernier = 0.000598788
vernier = 0.000798383
vernier = 0.000598787
Gmin = 4.25985e-08
vernier = 0.000798383
vernier = 0.000598787
Gmin = 4.25475e-08
vernier = 0.000798383
vernier = 0.000598787
vernier = 0.000798383
vernier = 0.000598787
Gmin = 4.25093e-08
vernier = 0.000798382
vernier = 0.000598787
Gmin = 4.24585e-08
vernier = 0.000798382
vernier = 0.000598787
vernier = 0.000798382
Gmin = 4.24055e-08
vernier = 0.000598787
vernier = 0.000798382
vernier = 0.000598786
Gmin = 4.23696e-08
vernier = 0.000798382
vernier = 0.000598786
Gmin = 4.23189e-08
vernier = 0.000798381
vernier = 0.000598786
vernier = 0.000798381
vernier = 0.000598786
Gmin = 4.22809e-08
vernier = 0.000798381
vernier = 0.000598786
Gmin = 4.22303e-08
vernier = 0.000798381
vernier = 0.000598786
vernier = 0.000798381
vernier = 0.000598785
Gmin = 4.21924e-08
vernier = 0.00079838
vernier = 0.000598785
Gmin = 4.21419e-08
vernier = 0.00079838
vernier = 0.000598785
vernier = 0.00079838
Gmin = 4.20894e-08
vernier = 0.000598785
vernier = 0.00079838
vernier = 0.000598785
Gmin = 4.20537e-08
vernier = 0.00079838
vernier = 0.000598785
Gmin = 4.20033e-08
vernier = 0.000798379
vernier = 0.000598785
vernier = 0.000798379
vernier = 0.000598784
Gmin = 4.19656e-08
vernier = 0.000798379
vernier = 0.000598784
Gmin = 4.19154e-08
vernier = 0.000798379
vernier = 0.000598784
vernier = 0.000798379
vernier = 0.000598784
Gmin = 4.18778e-08
vernier = 0.000798378
vernier = 0.000598784
Gmin = 4.18277e-08
vernier = 0.000798378
vernier = 0.000598784
vernier = 0.000798378
Gmin = 4.17755e-08
vernier = 0.000598784
vernier = 0.000798378
vernier = 0.000598783
Gmin = 4.17401e-08
vernier = 0.000798378
vernier = 0.000598783
Gmin = 4.16901e-08
vernier = 0.000798377
vernier = 0.000598783
vernier = 0.000798377
vernier = 0.000598783
Gmin = 4.16527e-08
vernier = 0.000798377
vernier = 0.000598783
Gmin = 4.16029e-08
vernier = 0.000798377
vernier = 0.000598783
vernier = 0.000798377
vernier = 0.000598782
Gmin = 4.15655e-08
vernier = 0.000798376
vernier = 0.000598782
Gmin = 4.15158e-08
vernier = 0.000798376
vernier = 0.000598782
vernier = 0.000798376
Gmin = 4.1464e-08
vernier = 0.000598782
vernier = 0.000798376
vernier = 0.000598782
Gmin = 4.14289e-08
vernier = 0.000798376
vernier = 0.000598782
Gmin = 4.13793e-08
vernier = 0.000798375
vernier = 0.000598782
vernier = 0.000798375
vernier = 0.000598781
Gmin = 4.13421e-08
vernier = 0.000798375
vernier = 0.000598781
Gmin = 4.12927e-08
vernier = 0.000798375
vernier = 0.000598781
vernier = 0.000798375
vernier = 0.000598781
Gmin = 4.12556e-08
vernier = 0.000798374
vernier = 0.000598781
Gmin = 4.12062e-08
vernier = 0.000798374
vernier = 0.000598781
vernier = 0.000798374
Gmin = 4.11549e-08
vernier = 0.000598781
vernier = 0.000798374
vernier = 0.00059878
Gmin = 4.112e-08
vernier = 0.000798374
vernier = 0.00059878
Gmin = 4.10708e-08
vernier = 0.000798373
vernier = 0.00059878
vernier = 0.000798373
vernier = 0.00059878
Gmin = 4.10339e-08
vernier = 0.000798373
vernier = 0.00059878
Gmin = 4.09848e-08
vernier = 0.000798373
vernier = 0.00059878
vernier = 0.000798373
vernier = 0.000598779
Gmin = 4.0948e-08
vernier = 0.000798372
vernier = 0.000598779
Gmin = 4.0899e-08
vernier = 0.000798372
vernier = 0.000598779
vernier = 0.000798372
Gmin = 4.0848e-08
vernier = 0.000598779
vernier = 0.000798372
vernier = 0.000598779
Gmin = 4.08134e-08
vernier = 0.000798372
vernier = 0.000598779
Gmin = 4.07645e-08
vernier = 0.000798371
vernier = 0.000598779
vernier = 0.000798371
vernier = 0.000598778
Gmin = 4.07279e-08
vernier = 0.000798371
vernier = 0.000598778
Gmin = 4.06792e-08
vernier = 0.000798371
vernier = 0.000598778
vernier = 0.000798371
vernier = 0.000598778
Gmin = 4.06427e-08
vernier = 0.00079837
vernier = 0.000598778
Gmin = 4.0594e-08
vernier = 0.00079837
vernier = 0.000598778
vernier = 0.00079837
Gmin = 4.05434e-08
vernier = 0.000598778
vernier = 0.00079837
vernier = 0.000598777
Gmin = 4.05091e-08
vernier = 0.00079837
vernier = 0.000598777
Gmin = 4.04606e-08
vernier = 0.000798369
vernier = 0.000598777
vernier = 0.000798369
vernier = 0.000598777
Gmin = 4.04243e-08
vernier = 0.000798369
vernier = 0.000598777
Gmin = 4.03759e-08
vernier = 0.000798369
vernier = 0.000598777
vernier = 0.000798369
vernier = 0.000598777
Gmin = 4.03396e-08
vernier = 0.000798368
vernier = 0.000598776
Gmin = 4.02914e-08
vernier = 0.000798368
vernier = 0.000598776
vernier = 0.000798368
Gmin = 4.02411e-08
vernier = 0.000598776
vernier = 0.000798368
vernier = 0.000598776
Gmin = 4.0207e-08
vernier = 0.000798368
vernier = 0.000598776
Gmin = 4.01589e-08
vernier = 0.000798367
vernier = 0.000598776
vernier = 0.000798367
vernier = 0.000598775
Gmin = 4.01228e-08
vernier = 0.000798367
vernier = 0.000598775
Gmin = 4.00748e-08
vernier = 0.000798367
vernier = 0.000598775
vernier = 0.000798367
vernier = 0.000598775
Gmin = 4.00389e-08
vernier = 0.000798366
vernier = 0.000598775
Gmin = 3.99909e-08
vernier = 0.000798366
vernier = 0.000598775
vernier = 0.000798366
Gmin = 3.99411e-08
vernier = 0.000598775
vernier = 0.000798366
vernier = 0.000598774
Gmin = 3.99072e-08
vernier = 0.000798366
vernier = 0.000598774
Gmin = 3.98595e-08
vernier = 0.000798365
vernier = 0.000598774
vernier = 0.000798365
vernier = 0.000598774
Gmin = 3.98237e-08
vernier = 0.000798365
vernier = 0.000598774
Gmin = 3.9776e-08
vernier = 0.000798365
vernier = 0.000598774
vernier = 0.000798365
vernier = 0.000598774
Gmin = 3.97403e-08
vernier = 0.000798364
vernier = 0.000598773
Gmin = 3.96928e-08
vernier = 0.000798364
vernier = 0.000598773
vernier = 0.000798364
Gmin = 3.96433e-08
vernier = 0.000598773
vernier = 0.000798364
vernier = 0.000598773
Gmin = 3.96097e-08
vernier = 0.000798364
vernier = 0.000598773
Gmin = 3.95623e-08
vernier = 0.000798363
vernier = 0.000598773
vernier = 0.000798363
vernier = 0.000598772
Gmin = 3.95267e-08
vernier = 0.000798363
vernier = 0.000598772
Gmin = 3.94794e-08
vernier = 0.000798363
vernier = 0.000598772
vernier = 0.000798363
vernier = 0.000598772
Gmin = 3.9444e-08
vernier = 0.000798362
vernier = 0.000598772
Gmin = 3.93968e-08
vernier = 0.000798362
vernier = 0.000598772
vernier = 0.000798362
Gmin = 3.93477e-08
vernier = 0.000598772
vernier = 0.000798362
vernier = 0.000598771
Gmin = 3.93143e-08
vernier = 0.000798362
vernier = 0.000598771
Gmin = 3.92673e-08
vernier = 0.000798361
vernier = 0.000598771
vernier = 0.000798361
vernier = 0.000598771
Gmin = 3.9232e-08
vernier = 0.000798361
vernier = 0.000598771
Gmin = 3.91851e-08
vernier = 0.000798361
vernier = 0.000598771
vernier = 0.000798361
vernier = 0.000598771
Gmin = 3.91499e-08
vernier = 0.00079836
vernier = 0.00059877
Gmin = 3.91031e-08
vernier = 0.00079836
vernier = 0.00059877
vernier = 0.00079836
Gmin = 3.90543e-08
vernier = 0.00059877
vernier = 0.00079836
vernier = 0.00059877
Gmin = 3.90212e-08
vernier = 0.00079836
vernier = 0.00059877
Gmin = 3.89745e-08
vernier = 0.000798359
vernier = 0.00059877
vernier = 0.000798359
vernier = 0.000598769
Gmin = 3.89395e-08
vernier = 0.000798359
vernier = 0.000598769
Gmin = 3.88929e-08
vernier = 0.000798359
vernier = 0.000598769
vernier = 0.000798359
vernier = 0.000598769
Gmin = 3.8858e-08
vernier = 0.000798358
vernier = 0.000598769
Gmin = 3.88115e-08
vernier = 0.000798358
vernier = 0.000598769
vernier = 0.000798358
Gmin = 3.87631e-08
vernier = 0.000598769
vernier = 0.000798358
vernier = 0.000598768
Gmin = 3.87303e-08
vernier = 0.000798358
vernier = 0.000598768
Gmin = 3.86839e-08
vernier = 0.000798357
vernier = 0.000598768
vernier = 0.000798357
vernier = 0.000598768
Gmin = 3.86492e-08
vernier = 0.000798357
vernier = 0.000598768
Gmin = 3.86029e-08
vernier = 0.000798357
vernier = 0.000598768
vernier = 0.000798357
vernier = 0.000598768
Gmin = 3.85683e-08
vernier = 0.000798356
vernier = 0.000598767
Gmin = 3.85221e-08
vernier = 0.000798356
vernier = 0.000598767
vernier = 0.000798356
Gmin = 3.84741e-08
vernier = 0.000598767
vernier = 0.000798356
vernier = 0.000598767
Gmin = 3.84415e-08
vernier = 0.000798356
vernier = 0.000598767
Gmin = 3.83955e-08
vernier = 0.000798355
vernier = 0.000598767
vernier = 0.000798355
vernier = 0.000598766
Gmin = 3.8361e-08
vernier = 0.000798355
vernier = 0.000598766
Gmin = 3.83151e-08
vernier = 0.000798355
vernier = 0.000598766
vernier = 0.000798355
vernier = 0.000598766
Gmin = 3.82807e-08
vernier = 0.000798354
vernier = 0.000598766
Gmin = 3.82349e-08
vernier = 0.000798354
vernier = 0.000598766
vernier = 0.000798354
Gmin = 3.81872e-08
vernier = 0.000598766
vernier = 0.000798354
vernier = 0.000598765
Gmin = 3.81549e-08
vernier = 0.000798354
vernier = 0.000598765
Gmin = 3.81092e-08
vernier = 0.000798353
vernier = 0.000598765
vernier = 0.000798353
vernier = 0.000598765
Gmin = 3.8075e-08
vernier = 0.000798353
vernier = 0.000598765
Gmin = 3.80294e-08
vernier = 0.000798353
vernier = 0.000598765
vernier = 0.000798353
vernier = 0.000598765
Gmin = 3.79953e-08
vernier = 0.000798353
vernier = 0.000598764
Gmin = 3.79498e-08
vernier = 0.000798352
vernier = 0.000598764
vernier = 0.000798352
Gmin = 3.79025e-08
vernier = 0.000598764
vernier = 0.000798352
vernier = 0.000598764
Gmin = 3.78704e-08
vernier = 0.000798352
vernier = 0.000598764
Gmin = 3.7825e-08
vernier = 0.000798352
vernier = 0.000598764
vernier = 0.000798351
vernier = 0.000598763
Gmin = 3.77911e-08
vernier = 0.000798351
vernier = 0.000598763
Gmin = 3.77459e-08
vernier = 0.000798351
vernier = 0.000598763
vernier = 0.000798351
vernier = 0.000598763
Gmin = 3.7712e-08
vernier = 0.000798351
vernier = 0.000598763
Gmin = 3.76669e-08
vernier = 0.00079835
vernier = 0.000598763
vernier = 0.00079835
Gmin = 3.76199e-08
vernier = 0.000598763
vernier = 0.00079835
vernier = 0.000598762
Gmin = 3.7588e-08
vernier = 0.00079835
vernier = 0.000598762
Gmin = 3.7543e-08
vernier = 0.00079835
vernier = 0.000598762
vernier = 0.000449072
vernier = 0.000598762
Gmin = 3.75163e-08
vernier = 0.000449071
vernier = 0.000598762
vernier = 0.000449071
Gmin = 3.74925e-08
vernier = 0.000598762
vernier = 0.000449071
Gmin = 3.74588e-08
vernier = 0.000598762
vernier = 0.000449071
vernier = 0.000598761
vernier = 0.000449071
Gmin = 3.74336e-08
vernier = 0.000598761
vernier = 0.000449071
Gmin = 3.74e-08
vernier = 0.000598761
vernier = 0.000449071
vernier = 0.000598761
vernier = 0.000449071
Gmin = 3.73748e-08
vernier = 0.000598761
vernier = 0.000449071
Gmin = 3.73413e-08
vernier = 0.000598761
vernier = 0.00044907
vernier = 0.00059876
Gmin = 3.73063e-08
vernier = 0.00044907
vernier = 0.00059876
vernier = 0.00044907
Gmin = 3.72826e-08
vernier = 0.00059876
vernier = 0.00044907
Gmin = 3.72492e-08
vernier = 0.00059876
vernier = 0.00044907
vernier = 0.00059876
vernier = 0.00044907
Gmin = 3.72241e-08
vernier = 0.00059876
vernier = 0.00044907
Gmin = 3.71907e-08
vernier = 0.00059876
vernier = 0.00044907
vernier = 0.000598759
vernier = 0.00044907
Gmin = 3.71656e-08
vernier = 0.000598759
vernier = 0.000449069
Gmin = 3.71323e-08
vernier = 0.000598759
vernier = 0.000449069
vernier = 0.000598759
Gmin = 3.70975e-08
vernier = 0.000449069
vernier = 0.000598759
vernier = 0.000449069
Gmin = 3.70739e-08
vernier = 0.000598759
vernier = 0.000449069
Gmin = 3.70407e-08
vernier = 0.000598759
vernier = 0.000449069
vernier = 0.000598758
vernier = 0.000449069
Gmin = 3.70157e-08
vernier = 0.000598758
vernier = 0.000449069
Gmin = 3.69825e-08
vernier = 0.000598758
vernier = 0.000449069
vernier = 0.000598758
vernier = 0.000449068
Gmin = 3.69576e-08
vernier = 0.000598758
vernier = 0.000449068
Gmin = 3.69244e-08
vernier = 0.000598758
vernier = 0.000449068
vernier = 0.000598757
Gmin = 3.68899e-08
vernier = 0.000449068
vernier = 0.000598757
vernier = 0.000449068
Gmin = 3.68664e-08
vernier = 0.000598757
vernier = 0.000449068
Gmin = 3.68333e-08
vernier = 0.000598757
vernier = 0.000449068
vernier = 0.000598757
vernier = 0.000449068
Gmin = 3.68085e-08
vernier = 0.000598757
vernier = 0.000449068
Gmin = 3.67755e-08
vernier = 0.000598757
vernier = 0.000449067
vernier = 0.000598756
vernier = 0.000449067
Gmin = 3.67507e-08
vernier = 0.000598756
vernier = 0.000449067
Gmin = 3.67177e-08
vernier = 0.000598756
vernier = 0.000449067
vernier = 0.000598756
Gmin = 3.66834e-08
vernier = 0.000449067
vernier = 0.000598756
vernier = 0.000449067
Gmin = 3.66601e-08
vernier = 0.000598756
vernier = 0.000449067
Gmin = 3.66272e-08
vernier = 0.000598756
vernier = 0.000449067
vernier = 0.000598755
vernier = 0.000449067
Gmin = 3.66025e-08
vernier = 0.000598755
vernier = 0.000449066
Gmin = 3.65696e-08
vernier = 0.000598755
vernier = 0.000449066
vernier = 0.000598755
vernier = 0.000449066
Gmin = 3.6545e-08
vernier = 0.000598755
vernier = 0.000449066
Gmin = 3.65122e-08
vernier = 0.000598755
vernier = 0.000449066
vernier = 0.000598754
Gmin = 3.64781e-08
vernier = 0.000449066
vernier = 0.000598754
vernier = 0.000449066
Gmin = 3.64549e-08
vernier = 0.000598754
vernier = 0.000449066
Gmin = 3.64221e-08
vernier = 0.000598754
vernier = 0.000449066
vernier = 0.000598754
vernier = 0.000449065
Gmin = 3.63976e-08
vernier = 0.000598754
vernier = 0.000449065
Gmin = 3.6365e-08
vernier = 0.000598754
vernier = 0.000449065
vernier = 0.000598753
vernier = 0.000449065
Gmin = 3.63405e-08
vernier = 0.000598753
vernier = 0.000449065
Gmin = 3.63078e-08
vernier = 0.000598753
vernier = 0.000449065
vernier = 0.000598753
Gmin = 3.62739e-08
vernier = 0.000449065
vernier = 0.000598753
vernier = 0.000449065
Gmin = 3.62508e-08
vernier = 0.000598753
vernier = 0.000449065
Gmin = 3.62183e-08
vernier = 0.000598753
vernier = 0.000449064
vernier = 0.000598752
vernier = 0.000449064
Gmin = 3.61939e-08
vernier = 0.000598752
vernier = 0.000449064
Gmin = 3.61614e-08
vernier = 0.000598752
vernier = 0.000449064
vernier = 0.000598752
vernier = 0.000449064
Gmin = 3.61371e-08
vernier = 0.000598752
vernier = 0.000449064
Gmin = 3.61046e-08
vernier = 0.000598752
vernier = 0.000449064
vernier = 0.000598752
Gmin = 3.60709e-08
vernier = 0.000449064
vernier = 0.000598751
vernier = 0.000449064
Gmin = 3.60479e-08
vernier = 0.000598751
vernier = 0.000449063
Gmin = 3.60156e-08
vernier = 0.000598751
vernier = 0.000449063
vernier = 0.000598751
vernier = 0.000449063
Gmin = 3.59913e-08
vernier = 0.000598751
vernier = 0.000449063
Gmin = 3.5959e-08
vernier = 0.000598751
vernier = 0.000449063
vernier = 0.00059875
vernier = 0.000449063
Gmin = 3.59348e-08
vernier = 0.00059875
vernier = 0.000449063
Gmin = 3.59025e-08
vernier = 0.00059875
vernier = 0.000449063
vernier = 0.00059875
Gmin = 3.5869e-08
vernier = 0.000449063
vernier = 0.00059875
vernier = 0.000449062
Gmin = 3.58462e-08
vernier = 0.00059875
vernier = 0.000449062
Gmin = 3.5814e-08
vernier = 0.00059875
vernier = 0.000449062
vernier = 0.000598749
vernier = 0.000449062
Gmin = 3.57899e-08
vernier = 0.000598749
vernier = 0.000449062
Gmin = 3.57577e-08
vernier = 0.000598749
vernier = 0.000449062
vernier = 0.000598749
vernier = 0.000449062
Gmin = 3.57337e-08
vernier = 0.000598749
vernier = 0.000449062
Gmin = 3.57016e-08
vernier = 0.000598749
vernier = 0.000449061
vernier = 0.000598749
Gmin = 3.56682e-08
vernier = 0.000449061
vernier = 0.000598748
vernier = 0.000449061
Gmin = 3.56455e-08
vernier = 0.000598748
vernier = 0.000449061
Gmin = 3.56135e-08
vernier = 0.000598748
vernier = 0.000449061
vernier = 0.000598748
vernier = 0.000449061
Gmin = 3.55895e-08
vernier = 0.000598748
vernier = 0.000449061
Gmin = 3.55576e-08
vernier = 0.000598748
vernier = 0.000449061
vernier = 0.000598747
vernier = 0.000449061
Gmin = 3.55336e-08
vernier = 0.000598747
vernier = 0.00044906
Gmin = 3.55017e-08
vernier = 0.000598747
vernier = 0.00044906
vernier = 0.000598747
Gmin = 3.54686e-08
vernier = 0.00044906
vernier = 0.000598747
vernier = 0.00044906
Gmin = 3.5446e-08
vernier = 0.000598747
vernier = 0.00044906
Gmin = 3.54142e-08
vernier = 0.000598747
vernier = 0.00044906
vernier = 0.000598746
vernier = 0.00044906
Gmin = 3.53903e-08
vernier = 0.000598746
vernier = 0.00044906
Gmin = 3.53586e-08
vernier = 0.000598746
vernier = 0.00044906
vernier = 0.000598746
vernier = 0.000449059
Gmin = 3.53348e-08
vernier = 0.000598746
vernier = 0.000449059
Gmin = 3.5303e-08
vernier = 0.000598746
vernier = 0.000449059
vernier = 0.000598746
Gmin = 3.527e-08
vernier = 0.000449059
vernier = 0.000598745
vernier = 0.000449059
Gmin = 3.52476e-08
vernier = 0.000598745
vernier = 0.000449059
Gmin = 3.5216e-08
vernier = 0.000598745
vernier = 0.000449059
vernier = 0.000598745
vernier = 0.000449059
Gmin = 3.51922e-08
vernier = 0.000598745
vernier = 0.000449059
Gmin = 3.51607e-08
vernier = 0.000598745
vernier = 0.000449058
vernier = 0.000598744
vernier = 0.000449058
Gmin = 3.5137e-08
vernier = 0.000598744
vernier = 0.000449058
Gmin = 3.51054e-08
vernier = 0.000598744
vernier = 0.000449058
vernier = 0.000598744
Gmin = 3.50726e-08
vernier = 0.000449058
vernier = 0.000598744
vernier = 0.000449058
Gmin = 3.50503e-08
vernier = 0.000598744
vernier = 0.000449058
Gmin = 3.50188e-08
vernier = 0.000598744
vernier = 0.000449058
vernier = 0.000598743
vernier = 0.000449058
Gmin = 3.49953e-08
vernier = 0.000598743
vernier = 0.000449057
Gmin = 3.49639e-08
vernier = 0.000598743
vernier = 0.000449057
vernier = 0.000598743
vernier = 0.000449057
Gmin = 3.49403e-08
vernier = 0.000598743
vernier = 0.000449057
Gmin = 3.49089e-08
vernier = 0.000598743
vernier = 0.000449057
vernier = 0.000598743
Gmin = 3.48763e-08
vernier = 0.000449057
vernier = 0.000598742
vernier = 0.000449057
Gmin = 3.48541e-08
vernier = 0.000598742
vernier = 0.000449057
Gmin = 3.48228e-08
vernier = 0.000598742
vernier = 0.000449057
vernier = 0.000598742
vernier = 0.000449056
Gmin = 3.47994e-08
vernier = 0.000598742
vernier = 0.000449056
Gmin = 3.47682e-08
vernier = 0.000598742
vernier = 0.000449056
vernier = 0.000598741
vernier = 0.000449056
Gmin = 3.47447e-08
vernier = 0.000598741
vernier = 0.000449056
Gmin = 3.47136e-08
vernier = 0.000598741
vernier = 0.000449056
vernier = 0.000598741
Gmin = 3.46811e-08
vernier = 0.000449056
vernier = 0.000598741
vernier = 0.000449056
Gmin = 3.4659e-08
vernier = 0.000598741
vernier = 0.000449056
Gmin = 3.46279e-08
vernier = 0.000598741
vernier = 0.000449055
vernier = 0.00059874
vernier = 0.000449055
Gmin = 3.46046e-08
vernier = 0.00059874
vernier = 0.000449055
Gmin = 3.45736e-08
vernier = 0.00059874
vernier = 0.000449055
vernier = 0.00059874
vernier = 0.000449055
Gmin = 3.45503e-08
vernier = 0.00059874
vernier = 0.000449055
Gmin = 3.45193e-08
vernier = 0.00059874
vernier = 0.000449055
vernier = 0.00059874
Gmin = 3.4487e-08
vernier = 0.000449055
vernier = 0.000598739
vernier = 0.000449055
Gmin = 3.44651e-08
vernier = 0.000598739
vernier = 0.000449054
Gmin = 3.44341e-08
vernier = 0.000598739
vernier = 0.000449054
vernier = 0.000598739
vernier = 0.000449054
Gmin = 3.44109e-08
vernier = 0.000598739
vernier = 0.000449054
Gmin = 3.438e-08
vernier = 0.000598739
vernier = 0.000449054
vernier = 0.000598738
vernier = 0.000449054
Gmin = 3.43569e-08
vernier = 0.000598738
vernier = 0.000449054
Gmin = 3.4326e-08
vernier = 0.000598738
vernier = 0.000449054
vernier = 0.000598738
Gmin = 3.4294e-08
vernier = 0.000449054
vernier = 0.000598738
vernier = 0.000449053
Gmin = 3.42721e-08
vernier = 0.000598738
vernier = 0.000449053
Gmin = 3.42414e-08
vernier = 0.000598738
vernier = 0.000449053
vernier = 0.000598737
vernier = 0.000449053
Gmin = 3.42183e-08
vernier = 0.000598737
vernier = 0.000449053
Gmin = 3.41876e-08
vernier = 0.000598737
vernier = 0.000449053
vernier = 0.000598737
vernier = 0.000449053
Gmin = 3.41646e-08
vernier = 0.000598737
vernier = 0.000449053
Gmin = 3.41339e-08
vernier = 0.000598737
vernier = 0.000449053
vernier = 0.000598737
Gmin = 3.4102e-08
vernier = 0.000449052
vernier = 0.000598736
vernier = 0.000449052
Gmin = 3.40803e-08
vernier = 0.000598736
vernier = 0.000449052
Gmin = 3.40497e-08
vernier = 0.000598736
vernier = 0.000449052
vernier = 0.000598736
vernier = 0.000449052
Gmin = 3.40268e-08
vernier = 0.000598736
vernier = 0.000449052
Gmin = 3.39963e-08
vernier = 0.000598736
vernier = 0.000449052
vernier = 0.000598735
vernier = 0.000449052
Gmin = 3.39734e-08
vernier = 0.000598735
vernier = 0.000449052
Gmin = 3.39429e-08
vernier = 0.000598735
vernier = 0.000449051
vernier = 0.000598735
Gmin = 3.39111e-08
vernier = 0.000449051
vernier = 0.000598735
vernier = 0.000449051
Gmin = 3.38896e-08
vernier = 0.000598735
vernier = 0.000449051
Gmin = 3.38591e-08
vernier = 0.000598735
vernier = 0.000449051
vernier = 0.000598734
vernier = 0.000449051
Gmin = 3.38363e-08
vernier = 0.000598734
vernier = 0.000449051
Gmin = 3.3806e-08
vernier = 0.000598734
vernier = 0.000449051
vernier = 0.000598734
vernier = 0.00044905
Gmin = 3.37832e-08
vernier = 0.000598734
vernier = 0.00044905
Gmin = 3.37529e-08
vernier = 0.000598734
vernier = 0.00044905
vernier = 0.000598734
Gmin = 3.37213e-08
vernier = 0.00044905
vernier = 0.000598733
vernier = 0.00044905
Gmin = 3.36999e-08
vernier = 0.000598733
vernier = 0.00044905
Gmin = 3.36696e-08
vernier = 0.000598733
vernier = 0.00044905
vernier = 0.000598733
vernier = 0.00044905
Gmin = 3.3647e-08
vernier = 0.000598733
vernier = 0.00044905
Gmin = 3.36168e-08
vernier = 0.000598733
vernier = 0.000449049
vernier = 0.000598732
vernier = 0.000449049
Gmin = 3.35941e-08
vernier = 0.000598732
vernier = 0.000449049
Gmin = 3.3564e-08
vernier = 0.000598732
vernier = 0.000449049
vernier = 0.000598732
Gmin = 3.35326e-08
vernier = 0.000449049
vernier = 0.000598732
vernier = 0.000449049
Gmin = 3.35113e-08
vernier = 0.000598732
vernier = 0.000449049
Gmin = 3.34812e-08
vernier = 0.000598732
vernier = 0.000449049
vernier = 0.000598731
vernier = 0.000449049
Gmin = 3.34586e-08
vernier = 0.000598731
vernier = 0.000449048
Gmin = 3.34286e-08
vernier = 0.000598731
vernier = 0.000449048
vernier = 0.000598731
vernier = 0.000449048
Gmin = 3.34061e-08
vernier = 0.000598731
vernier = 0.000449048
Gmin = 3.33761e-08
vernier = 0.000598731
vernier = 0.000449048
vernier = 0.000598731
Gmin = 3.33449e-08
vernier = 0.000449048
vernier = 0.00059873
vernier = 0.000449048
Gmin = 3.33237e-08
vernier = 0.00059873
vernier = 0.000449048
Gmin = 3.32938e-08
vernier = 0.00059873
vernier = 0.000449048
vernier = 0.00059873
vernier = 0.000449047
Gmin = 3.32714e-08
vernier = 0.00059873
vernier = 0.000449047
Gmin = 3.32415e-08
vernier = 0.00059873
vernier = 0.000449047
vernier = 0.000598729
vernier = 0.000449047
Gmin = 3.32191e-08
vernier = 0.000598729
vernier = 0.000449047
Gmin = 3.31893e-08
vernier = 0.000598729
vernier = 0.000449047
vernier = 0.000598729
Gmin = 3.31583e-08
vernier = 0.000449047
vernier = 0.000598729
vernier = 0.000449047
Gmin = 3.31372e-08
vernier = 0.000598729
vernier = 0.000449047
Gmin = 3.31074e-08
vernier = 0.000598729
vernier = 0.000449046
vernier = 0.000598728
vernier = 0.000449046
Gmin = 3.30851e-08
vernier = 0.000598728
vernier = 0.000449046
Gmin = 3.30554e-08
vernier = 0.000598728
vernier = 0.000449046
vernier = 0.000598728
vernier = 0.000449046
Gmin = 3.30332e-08
vernier = 0.000598728
vernier = 0.000449046
Gmin = 3.30035e-08
vernier = 0.000598728
vernier = 0.000449046
vernier = 0.000598728
Gmin = 3.29727e-08
vernier = 0.000449046
vernier = 0.000598727
vernier = 0.000449046
Gmin = 3.29517e-08
vernier = 0.000598727
vernier = 0.000449045
Gmin = 3.29221e-08
vernier = 0.000598727
vernier = 0.000449045
vernier = 0.000598727
vernier = 0.000449045
Gmin = 3.29e-08
vernier = 0.000598727
vernier = 0.000449045
Gmin = 3.28704e-08
vernier = 0.000598727
vernier = 0.000449045
vernier = 0.000598727
vernier = 0.000449045
Gmin = 3.28483e-08
vernier = 0.000598726
vernier = 0.000449045
Gmin = 3.28188e-08
vernier = 0.000598726
vernier = 0.000449045
vernier = 0.000598726
Gmin = 3.27881e-08
vernier = 0.000449045
vernier = 0.000598726
vernier = 0.000449044
Gmin = 3.27673e-08
vernier = 0.000598726
vernier = 0.000449044
Gmin = 3.27379e-08
vernier = 0.000598726
vernier = 0.000449044
vernier = 0.000598725
vernier = 0.000449044
Gmin = 3.27158e-08
vernier = 0.000598725
vernier = 0.000449044
Gmin = 3.26865e-08
vernier = 0.000598725
vernier = 0.000449044
vernier = 0.000598725
vernier = 0.000449044
Gmin = 3.26645e-08
vernier = 0.000598725
vernier = 0.000449044
Gmin = 3.26351e-08
vernier = 0.000598725
vernier = 0.000449044
vernier = 0.000598725
Gmin = 3.26046e-08
vernier = 0.000449043
vernier = 0.000598724
vernier = 0.000449043
Gmin = 3.25839e-08
vernier = 0.000598724
vernier = 0.000449043
Gmin = 3.25546e-08
vernier = 0.000598724
vernier = 0.000449043
vernier = 0.000598724
vernier = 0.000449043
Gmin = 3.25327e-08
vernier = 0.000598724
vernier = 0.000449043
Gmin = 3.25035e-08
vernier = 0.000598724
vernier = 0.000449043
vernier = 0.000598724
vernier = 0.000449043
Gmin = 3.24816e-08
vernier = 0.000598723
vernier = 0.000449043
Gmin = 3.24525e-08
vernier = 0.000598723
vernier = 0.000449042
vernier = 0.000598723
Gmin = 3.24221e-08
vernier = 0.000449042
vernier = 0.000598723
vernier = 0.000449042
Gmin = 3.24015e-08
vernier = 0.000598723
vernier = 0.000449042
Gmin = 3.23724e-08
vernier = 0.000598723
vernier = 0.000449042
vernier = 0.000598722
vernier = 0.000449042
Gmin = 3.23506e-08
vernier = 0.000598722
vernier = 0.000449042
Gmin = 3.23216e-08
vernier = 0.000598722
vernier = 0.000449042
vernier = 0.000598722
vernier = 0.000449042
Gmin = 3.22998e-08
vernier = 0.000598722
vernier = 0.000449041
Gmin = 3.22708e-08
vernier = 0.000598722
vernier = 0.000449041
vernier = 0.000598722
Gmin = 3.22407e-08
vernier = 0.000449041
vernier = 0.000598721
vernier = 0.000449041
Gmin = 3.22202e-08
vernier = 0.000598721
vernier = 0.000449041
Gmin = 3.21912e-08
vernier = 0.000598721
vernier = 0.000449041
vernier = 0.000598721
vernier = 0.000449041
Gmin = 3.21696e-08
vernier = 0.000598721
vernier = 0.000449041
Gmin = 3.21407e-08
vernier = 0.000598721
vernier = 0.000449041
vernier = 0.000598721
vernier = 0.00044904
Gmin = 3.2119e-08
vernier = 0.00059872
vernier = 0.00044904
Gmin = 3.20902e-08
vernier = 0.00059872
vernier = 0.00044904
vernier = 0.00059872
Gmin = 3.20602e-08
vernier = 0.00044904
vernier = 0.00059872
vernier = 0.00044904
Gmin = 3.20398e-08
vernier = 0.00059872
vernier = 0.00044904
Gmin = 3.20111e-08
vernier = 0.00059872
vernier = 0.00044904
vernier = 0.000598719
vernier = 0.00044904
Gmin = 3.19895e-08
vernier = 0.000598719
vernier = 0.000449039
Gmin = 3.19608e-08
vernier = 0.000598719
vernier = 0.000449039
vernier = 0.000598719
vernier = 0.000449039
Gmin = 3.19393e-08
vernier = 0.000598719
vernier = 0.000449039
Gmin = 3.19106e-08
vernier = 0.000598719
vernier = 0.000449039
vernier = 0.000598719
Gmin = 3.18808e-08
vernier = 0.000449039
vernier = 0.000598718
vernier = 0.000449039
Gmin = 3.18605e-08
vernier = 0.000598718
vernier = 0.000449039
Gmin = 3.18319e-08
vernier = 0.000598718
vernier = 0.000449039
vernier = 0.000598718
vernier = 0.000449038
Gmin = 3.18105e-08
vernier = 0.000598718
vernier = 0.000449038
Gmin = 3.17819e-08
vernier = 0.000598718
vernier = 0.000449038
vernier = 0.000598718
vernier = 0.000449038
Gmin = 3.17605e-08
vernier = 0.000598717
vernier = 0.000449038
Gmin = 3.1732e-08
vernier = 0.000598717
vernier = 0.000449038
vernier = 0.000598717
Gmin = 3.17023e-08
vernier = 0.000449038
vernier = 0.000598717
vernier = 0.000449038
Gmin = 3.16822e-08
vernier = 0.000598717
vernier = 0.000449038
Gmin = 3.16537e-08
vernier = 0.000598717
vernier = 0.000449037
vernier = 0.000598716
vernier = 0.000449037
Gmin = 3.16324e-08
vernier = 0.000598716
vernier = 0.000449037
Gmin = 3.1604e-08
vernier = 0.000598716
vernier = 0.000449037
vernier = 0.000598716
vernier = 0.000449037
Gmin = 3.15828e-08
vernier = 0.000598716
vernier = 0.000449037
Gmin = 3.15544e-08
vernier = 0.000598716
vernier = 0.000449037
vernier = 0.000598716
Gmin = 3.15249e-08
vernier = 0.000449037
vernier = 0.000598715
vernier = 0.000449037
Gmin = 3.15049e-08
vernier = 0.000598715
vernier = 0.000449036
Gmin = 3.14766e-08
vernier = 0.000598715
vernier = 0.000449036
vernier = 0.000598715
vernier = 0.000449036
Gmin = 3.14554e-08
vernier = 0.000598715
vernier = 0.000449036
Gmin = 3.14271e-08
vernier = 0.000598715
vernier = 0.000449036
vernier = 0.000598715
vernier = 0.000449036
Gmin = 3.1406e-08
vernier = 0.000598714
vernier = 0.000449036
Gmin = 3.13778e-08
vernier = 0.000598714
vernier = 0.000449036
vernier = 0.000598714
Gmin = 3.13485e-08
vernier = 0.000449036
vernier = 0.000598714
vernier = 0.000449035
Gmin = 3.13285e-08
vernier = 0.000598714
vernier = 0.000449035
Gmin = 3.13004e-08
vernier = 0.000598714
vernier = 0.000449035
vernier = 0.000598713
vernier = 0.000449035
Gmin = 3.12793e-08
vernier = 0.000598713
vernier = 0.000449035
Gmin = 3.12513e-08
vernier = 0.000598713
vernier = 0.000449035
vernier = 0.000598713
vernier = 0.000449035
Gmin = 3.12302e-08
vernier = 0.000598713
vernier = 0.000449035
Gmin = 3.12022e-08
vernier = 0.000598713
vernier = 0.000449035
vernier = 0.000598713
Gmin = 3.1173e-08
vernier = 0.000449034
vernier = 0.000598712
vernier = 0.000449034
Gmin = 3.11532e-08
vernier = 0.000598712
vernier = 0.000449034
Gmin = 3.11252e-08
vernier = 0.000598712
vernier = 0.000449034
vernier = 0.000598712
vernier = 0.000449034
Gmin = 3.11043e-08
vernier = 0.000598712
vernier = 0.000449034
Gmin = 3.10763e-08
vernier = 0.000598712
vernier = 0.000449034
vernier = 0.000598712
vernier = 0.000449034
Gmin = 3.10554e-08
vernier = 0.000598711
vernier = 0.000449034
Gmin = 3.10275e-08
vernier = 0.000598711
vernier = 0.000449033
vernier = 0.000598711
Gmin = 3.09985e-08
vernier = 0.000449033
vernier = 0.000598711
vernier = 0.000449033
Gmin = 3.09788e-08
vernier = 0.000598711
vernier = 0.000449033
Gmin = 3.0951e-08
vernier = 0.000598711
vernier = 0.000449033
vernier = 0.00059871
vernier = 0.000449033
Gmin = 3.09302e-08
vernier = 0.00059871
vernier = 0.000449033
Gmin = 3.09024e-08
vernier = 0.00059871
vernier = 0.000449033
vernier = 0.00059871
vernier = 0.000449033
Gmin = 3.08816e-08
vernier = 0.00059871
vernier = 0.000449032
Gmin = 3.08539e-08
vernier = 0.00059871
vernier = 0.000449032
vernier = 0.00059871
Gmin = 3.0825e-08
vernier = 0.000449032
vernier = 0.000598709
vernier = 0.000449032
Gmin = 3.08054e-08
vernier = 0.000598709
vernier = 0.000449032
Gmin = 3.07778e-08
vernier = 0.000598709
vernier = 0.000449032
vernier = 0.000598709
vernier = 0.000449032
Gmin = 3.07571e-08
vernier = 0.000598709
vernier = 0.000449032
Gmin = 3.07295e-08
vernier = 0.000598709
vernier = 0.000449032
vernier = 0.000598709
vernier = 0.000449031
Gmin = 3.07088e-08
vernier = 0.000598708
vernier = 0.000449031
Gmin = 3.06812e-08
vernier = 0.000598708
vernier = 0.000449031
vernier = 0.000598708
Gmin = 3.06525e-08
vernier = 0.000449031
vernier = 0.000598708
vernier = 0.000449031
Gmin = 3.0633e-08
vernier = 0.000598708
vernier = 0.000449031
Gmin = 3.06055e-08
vernier = 0.000598708
vernier = 0.000449031
vernier = 0.000598707
vernier = 0.000449031
Gmin = 3.05849e-08
vernier = 0.000598707
vernier = 0.000449031
Gmin = 3.05575e-08
vernier = 0.000598707
vernier = 0.00044903
vernier = 0.000598707
vernier = 0.00044903
Gmin = 3.05369e-08
vernier = 0.000598707
vernier = 0.00044903
Gmin = 3.05095e-08
vernier = 0.000598707
vernier = 0.00044903
vernier = 0.000598707
Gmin = 3.0481e-08
vernier = 0.00044903
vernier = 0.000598706
vernier = 0.00044903
Gmin = 3.04616e-08
vernier = 0.000598706
vernier = 0.00044903
Gmin = 3.04342e-08
vernier = 0.000598706
vernier = 0.00044903
vernier = 0.000598706
vernier = 0.000449029
Gmin = 3.04137e-08
vernier = 0.000598706
vernier = 0.000449029
Gmin = 3.03864e-08
vernier = 0.000598706
vernier = 0.000449029
vernier = 0.000598706
vernier = 0.000449029
Gmin = 3.0366e-08
vernier = 0.000598705
vernier = 0.000449029
Gmin = 3.03387e-08
vernier = 0.000598705
vernier = 0.000449029
vernier = 0.000598705
Gmin = 3.03104e-08
vernier = 0.000449029
vernier = 0.000598705
vernier = 0.000449029
Gmin = 3.02911e-08
vernier = 0.000598705
vernier = 0.000449029
Gmin = 3.02639e-08
vernier = 0.000598705
vernier = 0.000449028
vernier = 0.000598705
vernier = 0.000449028
Gmin = 3.02435e-08
vernier = 0.000598704
vernier = 0.000449028
Gmin = 3.02164e-08
vernier = 0.000598704
vernier = 0.000449028
vernier = 0.000598704
vernier = 0.000449028
Gmin = 3.0196e-08
vernier = 0.000598704
vernier = 0.000449028
Gmin = 3.01689e-08
vernier = 0.000598704
vernier = 0.000449028
vernier = 0.000598704
Gmin = 3.01407e-08
vernier = 0.000449028
vernier = 0.000598703
vernier = 0.000449028
Gmin = 3.01216e-08
vernier = 0.000598703
vernier = 0.000449027
Gmin = 3.00945e-08
vernier = 0.000598703
vernier = 0.000449027
vernier = 0.000598703
vernier = 0.000449027
Gmin = 3.00743e-08
vernier = 0.000598703
vernier = 0.000449027
Gmin = 3.00473e-08
vernier = 0.000598703
vernier = 0.000449027
vernier = 0.000598703
vernier = 0.000449027
Gmin = 3.0027e-08
vernier = 0.000598702
vernier = 0.000449027
Gmin = 3.00001e-08
vernier = 0.000598702
vernier = 0.000449027
vernier = 0.000598702
Gmin = 2.9972e-08
vernier = 0.000449027
vernier = 0.000598702
vernier = 0.000449026
Gmin = 2.9953e-08
vernier = 0.000598702
vernier = 0.000449026
Gmin = 2.99261e-08
vernier = 0.000598702
vernier = 0.000449026
vernier = 0.000598702
vernier = 0.000449026
Gmin = 2.99059e-08
vernier = 0.000598701
vernier = 0.000449026
Gmin = 2.98791e-08
vernier = 0.000598701
vernier = 0.000449026
vernier = 0.000598701
vernier = 0.000449026
Gmin = 2.9859e-08
vernier = 0.000598701
vernier = 0.000449026
Gmin = 2.98322e-08
vernier = 0.000598701
vernier = 0.000449026
vernier = 0.000598701
Gmin = 2.98043e-08
vernier = 0.000449025
vernier = 0.0005987
vernier = 0.000449025
Gmin = 2.97853e-08
vernier = 0.0005987
vernier = 0.000449025
Gmin = 2.97586e-08
vernier = 0.0005987
vernier = 0.000449025
vernier = 0.0005987
vernier = 0.000449025
Gmin = 2.97386e-08
vernier = 0.0005987
vernier = 0.000449025
Gmin = 2.97119e-08
vernier = 0.0005987
vernier = 0.000449025
vernier = 0.0005987
vernier = 0.000449025
Gmin = 2.96919e-08
vernier = 0.000598699
vernier = 0.000449025
Gmin = 2.96652e-08
vernier = 0.000598699
vernier = 0.000449024
vernier = 0.000598699
Gmin = 2.96375e-08
vernier = 0.000449024
vernier = 0.000598699
vernier = 0.000449024
Gmin = 2.96186e-08
vernier = 0.000598699
vernier = 0.000449024
Gmin = 2.9592e-08
vernier = 0.000598699
vernier = 0.000449024
vernier = 0.000598699
vernier = 0.000449024
Gmin = 2.95721e-08
vernier = 0.000598698
vernier = 0.000449024
Gmin = 2.95456e-08
vernier = 0.000598698
vernier = 0.000449024
vernier = 0.000598698
vernier = 0.000449024
Gmin = 2.95257e-08
vernier = 0.000598698
vernier = 0.000449023
Gmin = 2.94992e-08
vernier = 0.000598698
vernier = 0.000449023
vernier = 0.000598698
Gmin = 2.94716e-08
vernier = 0.000449023
vernier = 0.000598697
vernier = 0.000449023
Gmin = 2.94529e-08
vernier = 0.000598697
vernier = 0.000449023
Gmin = 2.94264e-08
vernier = 0.000598697
vernier = 0.000449023
vernier = 0.000598697
vernier = 0.000449023
Gmin = 2.94066e-08
Gmin = 0
Gmin stepping failed

Starting source stepping with srcstepmethod=0
Source Step = 3.0303%
Source Step = 33.3333%
Source Step = 33.721%
Source Step = 33.7506%
Source Step = 33.7802%
Source Step = 33.8098%
Source Step = 33.8394%
vernier = 0.00146484
Source Step = 33.8704%
Source Step = 33.9148%
Source Step = 33.9592%
Source Step = 34.0036%
Source Step = 34.048%
Source Step = 34.0924%
vernier = 0.00219727
Source Step = 34.159%
Source Step = 34.2256%
Source Step = 34.2921%
Source Step = 34.3587%
Source Step = 34.4253%
vernier = 0.0032959
Source Step = 34.5219%
Source Step = 34.6217%
Source Step = 34.7216%
Source Step = 34.8215%
Source Step = 34.9214%
vernier = 0.00494385
Source Step = 35.0612%
Source Step = 35.211%
Source Step = 35.3608%
Source Step = 35.5106%
Source Step = 35.6604%
vernier = 0.00741577
Source Step = 35.8627%
Source Step = 36.0874%
Source Step = 36.3121%
Source Step = 36.5368%
Source Step = 36.7616%
vernier = 0.0111237
Source Step = 37.0537%
Source Step = 37.3908%
Source Step = 37.7279%
Source Step = 38.0649%
Source Step = 38.402%
vernier = 0.0166855
Source Step = 38.8234%
Source Step = 39.329%
Source Step = 39.8346%
Source Step = 40.3402%
Source Step = 40.8459%
vernier = 0.0250282
Source Step = 41.4526%
Source Step = 42.211%
Source Step = 42.9695%
Source Step = 43.7279%
Source Step = 44.4863%
vernier = 0.0375423
Source Step = 45.3585%
Source Step = 46.4962%
Source Step = 47.6338%
Source Step = 48.7715%
Source Step = 49.9091%
vernier = 0.0563135
Source Step = 51.1605%
Source Step = 52.867%
Source Step = 54.5735%
Source Step = 56.2799%
Source Step = 57.9864%
vernier = 0.0844703
Source Step = 59.7782%
Source Step = 62.3379%
Source Step = 64.8976%
Source Step = 67.4573%
Source Step = 70.017%
Source Step = 72.5767%
vernier = 0.126705
Source Step = 76.4163%
Source Step = 80.2558%
Source Step = 84.0954%
Source Step = 87.935%
Source Step = 91.7745%
vernier = 0.190058
Source Step = 97.3419%
Source stepping succeeded in finding the operating point.

Total elapsed time: 5.197 seconds.

